C[C@H](OCc1ccccc1)[C@@H](N)C(=O)Cc1cccnc1
 OpenBabel03122003533D

 41 42  0  0  0  0  0  0  0  0999 V2000
   11.6749   -1.8598   22.3810 C   0  0  0  0  0  0  0  0  0  0  0  0
   10.5771   -0.9644   22.9548 C   0  0  2  0  0  0  0  0  0  0  0  0
    9.7097   -0.4413   21.9189 O   0  0  0  0  0  0  0  0  0  0  0  0
    8.8572   -1.4285   21.3118 C   0  0  0  0  0  0  0  0  0  0  0  0
    7.8928   -0.7673   20.3649 C   0  0  0  0  0  0  0  0  0  0  0  0
    8.3559   -0.1470   19.1937 C   0  0  0  0  0  0  0  0  0  0  0  0
    7.4551    0.3801   18.2655 C   0  0  0  0  0  0  0  0  0  0  0  0
    6.0843    0.2920   18.4966 C   0  0  0  0  0  0  0  0  0  0  0  0
    5.6124   -0.3232   19.6538 C   0  0  0  0  0  0  0  0  0  0  0  0
    6.5104   -0.8522   20.5830 C   0  0  0  0  0  0  0  0  0  0  0  0
   11.1276    0.3004   23.6763 C   0  0  1  0  0  0  0  0  0  0  0  0
   11.6559   -0.1902   25.0169 N   0  0  0  0  0  0  0  0  0  0  0  0
   12.1820    1.0879   22.8792 C   0  0  0  0  0  0  0  0  0  0  0  0
   13.3784    0.7996   22.9046 O   0  0  0  0  0  0  0  0  0  0  0  0
   11.7182    2.2709   22.0454 C   0  0  0  0  0  0  0  0  0  0  0  0
   12.3665    3.5961   22.3859 C   0  0  0  0  0  0  0  0  0  0  0  0
   13.0318    4.3246   21.3914 C   0  0  0  0  0  0  0  0  0  0  0  0
   13.5595    5.5835   21.6711 C   0  0  0  0  0  0  0  0  0  0  0  0
   13.4169    6.1083   22.9474 C   0  0  0  0  0  0  0  0  0  0  0  0
   12.7758    5.4000   23.8875 N   0  0  0  0  0  0  0  0  0  0  0  0
   12.2450    4.1859   23.6514 C   0  0  0  0  0  0  0  0  0  0  0  0
   12.2907   -2.2237   23.1768 H   0  0  0  0  0  0  0  0  0  0  0  0
   12.2733   -1.2961   21.6962 H   0  0  0  0  0  0  0  0  0  0  0  0
   11.2292   -2.6865   21.8683 H   0  0  0  0  0  0  0  0  0  0  0  0
   10.0610   -1.6054   23.6386 H   0  0  0  0  0  0  0  0  0  0  0  0
    8.3090   -1.9402   22.0751 H   0  0  0  0  0  0  0  0  0  0  0  0
    9.4603   -2.1249   20.7676 H   0  0  0  0  0  0  0  0  0  0  0  0
    9.3705   -0.0799   19.0171 H   0  0  0  0  0  0  0  0  0  0  0  0
    7.8053    0.8351   17.4080 H   0  0  0  0  0  0  0  0  0  0  0  0
    5.4189    0.6822   17.8110 H   0  0  0  0  0  0  0  0  0  0  0  0
    4.5967   -0.3882   19.8248 H   0  0  0  0  0  0  0  0  0  0  0  0
    6.1539   -1.3092   21.4369 H   0  0  0  0  0  0  0  0  0  0  0  0
   10.3440    1.0196   23.7927 H   0  0  0  0  0  0  0  0  0  0  0  0
   12.3986   -0.8717   24.8609 H   0  0  0  0  0  0  0  0  0  0  0  0
   10.8982   -0.6272   25.5416 H   0  0  0  0  0  0  0  0  0  0  0  0
   10.6618    2.3757   22.1791 H   0  0  0  0  0  0  0  0  0  0  0  0
   12.0031    2.0524   21.0374 H   0  0  0  0  0  0  0  0  0  0  0  0
   13.1318    3.9260   20.4447 H   0  0  0  0  0  0  0  0  0  0  0  0
   14.0503    6.1189   20.9380 H   0  0  0  0  0  0  0  0  0  0  0  0
   13.8023    7.0390   23.1717 H   0  0  0  0  0  0  0  0  0  0  0  0
   11.7466    3.6874   24.4051 H   0  0  0  0  0  0  0  0  0  0  0  0
  1 22  1  0  0  0  0
  1 23  1  0  0  0  0
  1 24  1  0  0  0  0
  2 11  1  0  0  0  0
  2  3  1  0  0  0  0
  2  1  1  0  0  0  0
  2 25  1  1  0  0  0
  3  4  1  0  0  0  0
  4  5  1  0  0  0  0
  4 26  1  0  0  0  0
  4 27  1  0  0  0  0
  5  6  2  0  0  0  0
  5 10  1  0  0  0  0
  6  7  1  0  0  0  0
  6 28  1  0  0  0  0
  7  8  2  0  0  0  0
  7 29  1  0  0  0  0
  8  9  1  0  0  0  0
  8 30  1  0  0  0  0
  9 10  2  0  0  0  0
  9 31  1  0  0  0  0
 10 32  1  0  0  0  0
 11 12  1  0  0  0  0
 11 13  1  0  0  0  0
 11 33  1  1  0  0  0
 12 34  1  0  0  0  0
 12 35  1  0  0  0  0
 13 14  2  0  0  0  0
 13 15  1  0  0  0  0
 15 16  1  0  0  0  0
 15 36  1  0  0  0  0
 15 37  1  0  0  0  0
 16 17  2  0  0  0  0
 16 21  1  0  0  0  0
 17 18  1  0  0  0  0
 17 38  1  0  0  0  0
 18 19  2  0  0  0  0
 18 39  1  0  0  0  0
 19 20  1  0  0  0  0
 19 40  1  0  0  0  0
 20 21  2  0  0  0  0
 21 41  1  0  0  0  0
M  END
>  <CHROM.1>
-75.99475563,70.16486967,173.69297312,66.60916744,-85.44475476,122.05484830
123.82872046,10.52314206,1.25912155,21.82385210,-2.71462393,-0.68104191,-0.37799224

>  <Name>
C[C@H](OCc1ccccc1)[C@@H](N)C(=O)Cc1cccnc1

>  <RI>
0

>  <Rbt.Current_Directory>
/home/gse84885/github/im/docking-validation/targets/mpro/expts/jackall/work/Mpro-x0072_0/work/1a/2694b1304f80441ea16ba71352daa7

>  <Rbt.Executable>
rbdock ($Id: //depot/dev/client3/rdock/2013.1/src/exe/rbdock.cxx#4 $)

>  <Rbt.Library>
libRbt.so (2013.1, Build901 2013/11/27)

>  <Rbt.Parameter_File>
/rDock_2013.1/data/scripts/dock.prm

>  <Rbt.Receptor>
docking-global.prm

>  <SCORE>
-11.8187

>  <SCORE.INTER>
-11.3293

>  <SCORE.INTER.CONST>
1

>  <SCORE.INTER.POLAR>
0

>  <SCORE.INTER.REPUL>
0

>  <SCORE.INTER.ROT>
7

>  <SCORE.INTER.VDW>
-23.7293

>  <SCORE.INTER.norm>
-0.539488

>  <SCORE.INTRA>
-0.489394

>  <SCORE.INTRA.DIHEDRAL>
2.32861

>  <SCORE.INTRA.DIHEDRAL.0>
3.81471

>  <SCORE.INTRA.POLAR>
0

>  <SCORE.INTRA.POLAR.0>
0

>  <SCORE.INTRA.REPUL>
0

>  <SCORE.INTRA.REPUL.0>
0

>  <SCORE.INTRA.VDW>
-1.6537

>  <SCORE.INTRA.VDW.0>
0.794827

>  <SCORE.INTRA.norm>
-0.0233045

>  <SCORE.RESTR>
0

>  <SCORE.RESTR.CAVITY>
0

>  <SCORE.RESTR.norm>
0

>  <SCORE.SYSTEM>
0

>  <SCORE.SYSTEM.CONST>
0

>  <SCORE.SYSTEM.DIHEDRAL>
0

>  <SCORE.SYSTEM.norm>
0

>  <SCORE.heavy>
21

>  <SCORE.norm>
-0.562793

>  <XChemDeepScore>
0.985273

>  <SuCOS_Max_Score>
0.37802903714730818

>  <SuCOS_Max_FeatureMap_Score>
0.042247758154849269

>  <SuCOS_Max_Protrude_Score>
0.71381031613976709

>  <SuCOS_Max_Index>
5

>  <SuCOS_Cum_Score>
2.038744474290592

>  <SuCOS_Cum_FeatureMap_Score>
0.22677705451623389

>  <SuCOS_Cum_Protrude_Score>
3.8507118940649505

$$$$
