CC(COCc1ccccc1)CC(N)Cc1ccncc1
 OpenBabel03122003533D

 45 46  0  0  0  0  0  0  0  0999 V2000
   13.3009   -1.5529   21.9734 C   0  0  0  0  0  0  0  0  0  0  0  0
   12.0487   -1.0824   22.7098 C   0  0  1  0  0  0  0  0  0  0  0  0
   11.4658    0.1623   22.0107 C   0  0  0  0  0  0  0  0  0  0  0  0
   12.1557    1.3650   22.3553 O   0  0  0  0  0  0  0  0  0  0  0  0
   11.5652    2.5275   21.7771 C   0  0  0  0  0  0  0  0  0  0  0  0
   12.1953    3.8078   22.2585 C   0  0  0  0  0  0  0  0  0  0  0  0
   13.2740    4.4188   21.6092 C   0  0  0  0  0  0  0  0  0  0  0  0
   13.8099    5.6104   22.1010 C   0  0  0  0  0  0  0  0  0  0  0  0
   13.2704    6.2030   23.2424 C   0  0  0  0  0  0  0  0  0  0  0  0
   12.1931    5.6114   23.8924 C   0  0  0  0  0  0  0  0  0  0  0  0
   11.6582    4.4152   23.4049 C   0  0  0  0  0  0  0  0  0  0  0  0
   10.9708   -2.1837   22.8301 C   0  0  0  0  0  0  0  0  0  0  0  0
    9.6801   -1.7694   23.5681 C   0  0  1  0  0  0  0  0  0  0  0  0
    8.9331   -0.7551   22.8169 N   0  0  0  0  0  0  0  0  0  0  0  0
    8.7948   -3.0152   23.8122 C   0  0  0  0  0  0  0  0  0  0  0  0
    9.2670   -3.8860   24.9548 C   0  0  0  0  0  0  0  0  0  0  0  0
    8.7695   -3.6926   26.2468 C   0  0  0  0  0  0  0  0  0  0  0  0
    9.2374   -4.5053   27.2674 C   0  0  0  0  0  0  0  0  0  0  0  0
   10.1524   -5.4835   27.0948 N   0  0  0  0  0  0  0  0  0  0  0  0
   10.6244   -5.6485   25.8414 C   0  0  0  0  0  0  0  0  0  0  0  0
   10.2161   -4.8914   24.7539 C   0  0  0  0  0  0  0  0  0  0  0  0
   14.0071   -0.7507   21.9221 H   0  0  0  0  0  0  0  0  0  0  0  0
   13.0378   -1.8603   20.9829 H   0  0  0  0  0  0  0  0  0  0  0  0
   13.7353   -2.3774   22.4992 H   0  0  0  0  0  0  0  0  0  0  0  0
   12.3456   -0.8342   23.7074 H   0  0  0  0  0  0  0  0  0  0  0  0
   10.4390    0.2641   22.2940 H   0  0  0  0  0  0  0  0  0  0  0  0
   11.5744    0.0197   20.9558 H   0  0  0  0  0  0  0  0  0  0  0  0
   10.5254    2.5432   22.0291 H   0  0  0  0  0  0  0  0  0  0  0  0
   11.7186    2.4727   20.7196 H   0  0  0  0  0  0  0  0  0  0  0  0
   13.6754    3.9863   20.7625 H   0  0  0  0  0  0  0  0  0  0  0  0
   14.6073    6.0539   21.6187 H   0  0  0  0  0  0  0  0  0  0  0  0
   13.6714    7.0820   23.6051 H   0  0  0  0  0  0  0  0  0  0  0  0
   11.7893    6.0541   24.7326 H   0  0  0  0  0  0  0  0  0  0  0  0
   10.8619    3.9749   23.8917 H   0  0  0  0  0  0  0  0  0  0  0  0
   11.4008   -3.0104   23.3560 H   0  0  0  0  0  0  0  0  0  0  0  0
   10.6755   -2.4176   21.8286 H   0  0  0  0  0  0  0  0  0  0  0  0
    9.9567   -1.3386   24.5077 H   0  0  0  0  0  0  0  0  0  0  0  0
    8.6548   -1.1377   21.9132 H   0  0  0  0  0  0  0  0  0  0  0  0
    9.5234    0.0640   22.6721 H   0  0  0  0  0  0  0  0  0  0  0  0
    8.7886   -3.6047   22.9192 H   0  0  0  0  0  0  0  0  0  0  0  0
    7.8208   -2.6584   24.0746 H   0  0  0  0  0  0  0  0  0  0  0  0
    8.0682   -2.9597   26.4368 H   0  0  0  0  0  0  0  0  0  0  0  0
    8.8637   -4.3536   28.2173 H   0  0  0  0  0  0  0  0  0  0  0  0
   11.3321   -6.3826   25.6827 H   0  0  0  0  0  0  0  0  0  0  0  0
   10.6056   -5.0671   23.8145 H   0  0  0  0  0  0  0  0  0  0  0  0
  1 22  1  0  0  0  0
  1 23  1  0  0  0  0
  1 24  1  0  0  0  0
  2  1  1  0  0  0  0
  2  3  1  0  0  0  0
  2 12  1  0  0  0  0
  2 25  1  1  0  0  0
  3  4  1  0  0  0  0
  3 26  1  0  0  0  0
  3 27  1  0  0  0  0
  4  5  1  0  0  0  0
  5  6  1  0  0  0  0
  5 28  1  0  0  0  0
  5 29  1  0  0  0  0
  6  7  2  0  0  0  0
  6 11  1  0  0  0  0
  7  8  1  0  0  0  0
  7 30  1  0  0  0  0
  8  9  2  0  0  0  0
  8 31  1  0  0  0  0
  9 10  1  0  0  0  0
  9 32  1  0  0  0  0
 10 11  2  0  0  0  0
 10 33  1  0  0  0  0
 11 34  1  0  0  0  0
 12 13  1  0  0  0  0
 12 35  1  0  0  0  0
 12 36  1  0  0  0  0
 13 14  1  0  0  0  0
 13 15  1  0  0  0  0
 13 37  1  1  0  0  0
 14 38  1  0  0  0  0
 14 39  1  0  0  0  0
 15 16  1  0  0  0  0
 15 40  1  0  0  0  0
 15 41  1  0  0  0  0
 16 17  2  0  0  0  0
 16 21  1  0  0  0  0
 17 18  1  0  0  0  0
 17 42  1  0  0  0  0
 18 19  2  0  0  0  0
 18 43  1  0  0  0  0
 19 20  1  0  0  0  0
 20 21  2  0  0  0  0
 20 44  1  0  0  0  0
 21 45  1  0  0  0  0
M  END
>  <CHROM.1>
-79.89325679,179.89141762,-176.23894831,173.66197503,90.89893892,66.52396503
77.19253547,92.39328280,11.13512175,-0.22748573,23.61298069,-2.25208132,1.07252719
0.29590902

>  <Name>
CC(COCc1ccccc1)CC(N)Cc1ccncc1

>  <RI>
0

>  <Rbt.Current_Directory>
/home/gse84885/github/im/docking-validation/targets/mpro/expts/jackall/work/Mpro-x0072_0/work/1c/aff0ebc27ed59b1d8bc33a4bd4b0dd

>  <Rbt.Executable>
rbdock ($Id: //depot/dev/client3/rdock/2013.1/src/exe/rbdock.cxx#4 $)

>  <Rbt.Library>
libRbt.so (2013.1, Build901 2013/11/27)

>  <Rbt.Parameter_File>
/rDock_2013.1/data/scripts/dock.prm

>  <Rbt.Receptor>
docking-global.prm

>  <SCORE>
-10.5143

>  <SCORE.INTER>
-11.1703

>  <SCORE.INTER.CONST>
1

>  <SCORE.INTER.POLAR>
0

>  <SCORE.INTER.REPUL>
0

>  <SCORE.INTER.ROT>
8

>  <SCORE.INTER.VDW>
-24.5703

>  <SCORE.INTER.norm>
-0.531919

>  <SCORE.INTRA>
0.656042

>  <SCORE.INTRA.DIHEDRAL>
2.35484

>  <SCORE.INTRA.DIHEDRAL.0>
1.88822

>  <SCORE.INTRA.POLAR>
0

>  <SCORE.INTRA.POLAR.0>
0

>  <SCORE.INTRA.REPUL>
0

>  <SCORE.INTRA.REPUL.0>
0

>  <SCORE.INTRA.VDW>
-0.521377

>  <SCORE.INTRA.VDW.0>
-0.777863

>  <SCORE.INTRA.norm>
0.0312401

>  <SCORE.RESTR>
0

>  <SCORE.RESTR.CAVITY>
0

>  <SCORE.RESTR.norm>
0

>  <SCORE.SYSTEM>
0

>  <SCORE.SYSTEM.CONST>
0

>  <SCORE.SYSTEM.DIHEDRAL>
0

>  <SCORE.SYSTEM.norm>
0

>  <SCORE.heavy>
21

>  <SCORE.norm>
-0.500679

>  <XChemDeepScore>
0.968257

>  <SuCOS_Max_Score>
0.40525158351525536

>  <SuCOS_Max_FeatureMap_Score>
0.093544102703025267

>  <SuCOS_Max_Protrude_Score>
0.71695906432748546

>  <SuCOS_Max_Index>
0

>  <SuCOS_Cum_Score>
1.8930812765040053

>  <SuCOS_Cum_FeatureMap_Score>
0.43945957212494369

>  <SuCOS_Cum_Protrude_Score>
3.3467029808830664

$$$$
