O=C(O)C=C(Cc1ccccc1)c1ccncc1
 OpenBabel03122003513D

 18 19  0  0  0  0  0  0  0  0999 V2000
    8.6513    0.9444   27.4452 O   0  0  0  0  0  0  0  0  0  0  0  0
    8.8992    0.4570   26.3046 C   0  0  0  0  0  0  0  0  0  0  0  0
    8.9329    1.0279   25.1837 O   0  0  0  0  0  0  0  0  0  0  0  0
    9.1733   -1.0489   26.3317 C   0  0  0  0  0  0  0  0  0  0  0  0
    9.4700   -1.8895   25.3213 C   0  0  0  0  0  0  0  0  0  0  0  0
    9.5939   -1.5520   23.8489 C   0  0  0  0  0  0  0  0  0  0  0  0
   10.9868   -1.1093   23.4413 C   0  0  0  0  0  0  0  0  0  0  0  0
   11.6161   -0.0260   24.0701 C   0  0  0  0  0  0  0  0  0  0  0  0
   12.8887    0.3859   23.6660 C   0  0  0  0  0  0  0  0  0  0  0  0
   13.5453   -0.2807   22.6321 C   0  0  0  0  0  0  0  0  0  0  0  0
   12.9408   -1.3748   22.0180 C   0  0  0  0  0  0  0  0  0  0  0  0
   11.6747   -1.7923   22.4279 C   0  0  0  0  0  0  0  0  0  0  0  0
    9.6106   -3.3135   25.6735 C   0  0  0  0  0  0  0  0  0  0  0  0
   10.2035   -4.1924   24.7674 C   0  0  0  0  0  0  0  0  0  0  0  0
   10.2774   -5.5337   25.0998 C   0  0  0  0  0  0  0  0  0  0  0  0
    9.8089   -6.0519   26.2567 N   0  0  0  0  0  0  0  0  0  0  0  0
    9.2274   -5.1779   27.1106 C   0  0  0  0  0  0  0  0  0  0  0  0
    9.1064   -3.8181   26.8706 C   0  0  0  0  0  0  0  0  0  0  0  0
  1  2  2  0  0  0  0
  2  3  1  0  0  0  0
  2  4  1  0  0  0  0
  4  5  2  0  0  0  0
  5  6  1  0  0  0  0
  5 13  1  0  0  0  0
  6  7  1  0  0  0  0
  7  8  2  0  0  0  0
  7 12  1  0  0  0  0
  8  9  1  0  0  0  0
  9 10  2  0  0  0  0
 10 11  1  0  0  0  0
 11 12  2  0  0  0  0
 13 14  2  0  0  0  0
 13 18  1  0  0  0  0
 14 15  1  0  0  0  0
 15 16  2  0  0  0  0
 16 17  1  0  0  0  0
 17 18  2  0  0  0  0
M  END
>  <CHROM.1>
-179.91363791,88.25985361,-165.60223689,-56.36145567,10.33265956,-1.85887258
24.94646834,0.94841076,0.82030688,-0.05866025

>  <Name>
O=C(O)C=C(Cc1ccccc1)c1ccncc1

>  <RI>
0

>  <Rbt.Current_Directory>
/home/gse84885/github/im/docking-validation/targets/mpro/expts/jackall/work/Mpro-x0072_0/work/d6/3b36aeec4cf5864976b6b44a8583b2

>  <Rbt.Executable>
rbdock ($Id: //depot/dev/client3/rdock/2013.1/src/exe/rbdock.cxx#4 $)

>  <Rbt.Library>
libRbt.so (2013.1, Build901 2013/11/27)

>  <Rbt.Parameter_File>
/rDock_2013.1/data/scripts/dock.prm

>  <Rbt.Receptor>
docking-global.prm

>  <SCORE>
-13.2766

>  <SCORE.INTER>
-9.98854

>  <SCORE.INTER.CONST>
1

>  <SCORE.INTER.POLAR>
0

>  <SCORE.INTER.REPUL>
0

>  <SCORE.INTER.ROT>
4

>  <SCORE.INTER.VDW>
-19.3885

>  <SCORE.INTER.norm>
-0.554919

>  <SCORE.INTRA>
-3.28807

>  <SCORE.INTRA.DIHEDRAL>
-11.4153

>  <SCORE.INTRA.DIHEDRAL.0>
14.8638

>  <SCORE.INTRA.POLAR>
0

>  <SCORE.INTRA.POLAR.0>
0

>  <SCORE.INTRA.REPUL>
0

>  <SCORE.INTRA.REPUL.0>
0

>  <SCORE.INTRA.VDW>
2.4196

>  <SCORE.INTRA.VDW.0>
-2.32221

>  <SCORE.INTRA.norm>
-0.182671

>  <SCORE.RESTR>
0

>  <SCORE.RESTR.CAVITY>
0

>  <SCORE.RESTR.norm>
0

>  <SCORE.SYSTEM>
0

>  <SCORE.SYSTEM.CONST>
0

>  <SCORE.SYSTEM.DIHEDRAL>
0

>  <SCORE.SYSTEM.norm>
0

>  <SCORE.heavy>
18

>  <SCORE.norm>
-0.737589

>  <XChemDeepScore>
0.983608

>  <SuCOS_Max_Score>
0.62788251154000063

>  <SuCOS_Max_FeatureMap_Score>
0.47775283367540666

>  <SuCOS_Max_Protrude_Score>
0.77801218940459449

>  <SuCOS_Max_Index>
0

>  <SuCOS_Cum_Score>
2.3505001957284826

>  <SuCOS_Cum_FeatureMap_Score>
1.2346163072997394

>  <SuCOS_Cum_Protrude_Score>
3.4663840841572271

$$$$
