COC(C(=O)O)C(C)(C)c1ccc(S(N)(=O)=O)cc1
 OpenBabel03122003533D

 36 36  0  0  0  0  0  0  0  0999 V2000
   12.4399   -1.4774   21.9012 C   0  0  0  0  0  0  0  0  0  0  0  0
   11.8117   -0.2062   21.7856 O   0  0  0  0  0  0  0  0  0  0  0  0
   10.9675    0.0845   22.9407 C   0  0  1  0  0  0  0  0  0  0  0  0
   11.8203    0.2395   24.2465 C   0  0  0  0  0  0  0  0  0  0  0  0
   12.8664    0.9449   24.1728 O   0  0  0  0  0  0  0  0  0  0  0  0
   11.3626   -0.3963   25.2434 O   0  0  0  0  0  0  0  0  0  0  0  0
   10.0622    1.3240   22.6458 C   0  0  0  0  0  0  0  0  0  0  0  0
    9.2799    1.7105   23.9292 C   0  0  0  0  0  0  0  0  0  0  0  0
   10.8920    2.5781   22.2674 C   0  0  0  0  0  0  0  0  0  0  0  0
    9.0854    0.9522   21.4849 C   0  0  0  0  0  0  0  0  0  0  0  0
    9.3572   -0.0909   20.5794 C   0  0  0  0  0  0  0  0  0  0  0  0
    8.5011   -0.3676   19.5046 C   0  0  0  0  0  0  0  0  0  0  0  0
    7.3535    0.4030   19.3180 C   0  0  0  0  0  0  0  0  0  0  0  0
    6.2845    0.0931   17.9405 S   0  0  0  0  0  0  0  0  0  0  0  0
    4.7794    0.3169   18.6528 N   0  0  0  0  0  0  0  0  0  0  0  0
    6.4434    1.1547   16.9737 O   0  0  0  0  0  0  0  0  0  0  0  0
    6.3718   -1.3047   17.5850 O   0  0  0  0  0  0  0  0  0  0  0  0
    7.0666    1.4549   20.1828 C   0  0  0  0  0  0  0  0  0  0  0  0
    7.9268    1.7247   21.2489 C   0  0  0  0  0  0  0  0  0  0  0  0
   13.0482   -1.6544   21.0389 H   0  0  0  0  0  0  0  0  0  0  0  0
   11.6923   -2.2395   21.9728 H   0  0  0  0  0  0  0  0  0  0  0  0
   13.0517   -1.4944   22.7788 H   0  0  0  0  0  0  0  0  0  0  0  0
   10.3163   -0.7461   23.1166 H   0  0  0  0  0  0  0  0  0  0  0  0
   10.5677   -0.8857   25.1622 H   0  0  0  0  0  0  0  0  0  0  0  0
    9.9713    1.9600   24.7068 H   0  0  0  0  0  0  0  0  0  0  0  0
    8.6755    0.8844   24.2409 H   0  0  0  0  0  0  0  0  0  0  0  0
    8.6535    2.5536   23.7248 H   0  0  0  0  0  0  0  0  0  0  0  0
   11.5562    2.8218   23.0701 H   0  0  0  0  0  0  0  0  0  0  0  0
   10.2325    3.4013   22.0878 H   0  0  0  0  0  0  0  0  0  0  0  0
   11.4599    2.3766   21.3832 H   0  0  0  0  0  0  0  0  0  0  0  0
   10.2053   -0.6643   20.7098 H   0  0  0  0  0  0  0  0  0  0  0  0
    8.7190   -1.1384   18.8539 H   0  0  0  0  0  0  0  0  0  0  0  0
    4.6726    1.2950   18.9217 H   0  0  0  0  0  0  0  0  0  0  0  0
    4.7041   -0.2736   19.4811 H   0  0  0  0  0  0  0  0  0  0  0  0
    6.2234    2.0318   20.0370 H   0  0  0  0  0  0  0  0  0  0  0  0
    7.7101    2.5103   21.8820 H   0  0  0  0  0  0  0  0  0  0  0  0
  1  2  1  0  0  0  0
  1 20  1  0  0  0  0
  1 21  1  0  0  0  0
  1 22  1  0  0  0  0
  3  2  1  0  0  0  0
  3  4  1  0  0  0  0
  3  7  1  0  0  0  0
  3 23  1  1  0  0  0
  4  5  2  0  0  0  0
  4  6  1  0  0  0  0
  6 24  1  0  0  0  0
  7  8  1  0  0  0  0
  7  9  1  0  0  0  0
  7 10  1  0  0  0  0
  8 25  1  0  0  0  0
  8 26  1  0  0  0  0
  8 27  1  0  0  0  0
  9 28  1  0  0  0  0
  9 29  1  0  0  0  0
  9 30  1  0  0  0  0
 10 11  2  0  0  0  0
 10 19  1  0  0  0  0
 11 12  1  0  0  0  0
 11 31  1  0  0  0  0
 12 13  2  0  0  0  0
 12 32  1  0  0  0  0
 13 14  1  0  0  0  0
 13 18  1  0  0  0  0
 14 15  1  0  0  0  0
 14 16  2  0  0  0  0
 14 17  2  0  0  0  0
 15 33  1  0  0  0  0
 15 34  1  0  0  0  0
 18 19  2  0  0  0  0
 18 35  1  0  0  0  0
 19 36  1  0  0  0  0
M  END
>  <CHROM.1>
65.85744242,45.55760300,-174.17326167,-21.82717736,141.00283620,9.04360657
0.43736747,20.98296105,-0.60012041,0.56814414,-2.27620096

>  <Name>
COC(C(=O)O)C(C)(C)c1ccc(S(N)(=O)=O)cc1

>  <RI>
0

>  <Rbt.Current_Directory>
/home/gse84885/github/im/docking-validation/targets/mpro/expts/jackall/work/Mpro-x0072_0/work/79/130ff0f7450c1177763541cab4773d

>  <Rbt.Executable>
rbdock ($Id: //depot/dev/client3/rdock/2013.1/src/exe/rbdock.cxx#4 $)

>  <Rbt.Library>
libRbt.so (2013.1, Build901 2013/11/27)

>  <Rbt.Parameter_File>
/rDock_2013.1/data/scripts/dock.prm

>  <Rbt.Receptor>
docking-global.prm

>  <SCORE>
-8.73926

>  <SCORE.INTER>
-8.55855

>  <SCORE.INTER.CONST>
1

>  <SCORE.INTER.POLAR>
0

>  <SCORE.INTER.REPUL>
0.0619149

>  <SCORE.INTER.ROT>
5

>  <SCORE.INTER.VDW>
-19.2681

>  <SCORE.INTER.norm>
-0.45045

>  <SCORE.INTRA>
-0.180712

>  <SCORE.INTRA.DIHEDRAL>
0.00606279

>  <SCORE.INTRA.DIHEDRAL.0>
4.45095

>  <SCORE.INTRA.POLAR>
0

>  <SCORE.INTRA.POLAR.0>
0

>  <SCORE.INTRA.REPUL>
0

>  <SCORE.INTRA.REPUL.0>
0

>  <SCORE.INTRA.VDW>
-0.183743

>  <SCORE.INTRA.VDW.0>
1.30005

>  <SCORE.INTRA.norm>
-0.00951114

>  <SCORE.RESTR>
0

>  <SCORE.RESTR.CAVITY>
0

>  <SCORE.RESTR.norm>
0

>  <SCORE.SYSTEM>
0

>  <SCORE.SYSTEM.CONST>
0

>  <SCORE.SYSTEM.DIHEDRAL>
0

>  <SCORE.SYSTEM.norm>
0

>  <SCORE.heavy>
19

>  <SCORE.norm>
-0.459961

>  <XChemDeepScore>
0.990281

>  <SuCOS_Max_Score>
0.40212951373559502

>  <SuCOS_Max_FeatureMap_Score>
0.070856104715448856

>  <SuCOS_Max_Protrude_Score>
0.73340292275574115

>  <SuCOS_Max_Index>
5

>  <SuCOS_Cum_Score>
1.8500995052591143

>  <SuCOS_Cum_FeatureMap_Score>
0.26850206291322098

>  <SuCOS_Cum_Protrude_Score>
3.4316969476050074

$$$$
