CC(C)C(C[C@@H](N)C(=O)O)c1ccccc1
 OpenBabel03122003533D

 35 35  0  0  0  0  0  0  0  0999 V2000
    8.8622    2.3976   21.9359 C   0  0  0  0  0  0  0  0  0  0  0  0
    9.5520    2.3995   23.3043 C   0  0  0  0  0  0  0  0  0  0  0  0
    8.7576    1.4905   24.2554 C   0  0  0  0  0  0  0  0  0  0  0  0
   11.0955    2.0764   23.3346 C   0  0  1  0  0  0  0  0  0  0  0  0
   11.4984    0.7244   22.6485 C   0  0  0  0  0  0  0  0  0  0  0  0
   12.9716    0.2569   22.6376 C   0  0  1  0  0  0  0  0  0  0  0  0
   13.6243    0.2922   23.9737 N   0  0  0  0  0  0  0  0  0  0  0  0
   13.0660   -1.2168   22.0659 C   0  0  0  0  0  0  0  0  0  0  0  0
   12.1633   -2.0192   22.4505 O   0  0  0  0  0  0  0  0  0  0  0  0
   14.0304   -1.4275   21.2717 O   0  0  0  0  0  0  0  0  0  0  0  0
   12.0531    3.2414   23.0210 C   0  0  0  0  0  0  0  0  0  0  0  0
   12.3841    3.6334   21.7191 C   0  0  0  0  0  0  0  0  0  0  0  0
   13.4072    4.5583   21.4770 C   0  0  0  0  0  0  0  0  0  0  0  0
   14.0746    5.1629   22.5347 C   0  0  0  0  0  0  0  0  0  0  0  0
   13.6775    4.8825   23.8362 C   0  0  0  0  0  0  0  0  0  0  0  0
   12.6672    3.9495   24.0777 C   0  0  0  0  0  0  0  0  0  0  0  0
    7.8251    2.6302   22.0590 H   0  0  0  0  0  0  0  0  0  0  0  0
    8.9602    1.4306   21.4884 H   0  0  0  0  0  0  0  0  0  0  0  0
    9.3197    3.1307   21.3048 H   0  0  0  0  0  0  0  0  0  0  0  0
    9.5372    3.4186   23.6300 H   0  0  0  0  0  0  0  0  0  0  0  0
    8.7945    0.4823   23.8990 H   0  0  0  0  0  0  0  0  0  0  0  0
    7.7397    1.8180   24.2945 H   0  0  0  0  0  0  0  0  0  0  0  0
    9.1855    1.5384   25.2349 H   0  0  0  0  0  0  0  0  0  0  0  0
   11.2541    1.9189   24.3810 H   0  0  0  0  0  0  0  0  0  0  0  0
   11.1926    0.7970   21.6257 H   0  0  0  0  0  0  0  0  0  0  0  0
   11.0186   -0.0087   23.2628 H   0  0  0  0  0  0  0  0  0  0  0  0
   13.4937    0.9510   22.0126 H   0  0  0  0  0  0  0  0  0  0  0  0
   13.1520   -0.3596   24.6001 H   0  0  0  0  0  0  0  0  0  0  0  0
   13.5643    1.2357   24.3566 H   0  0  0  0  0  0  0  0  0  0  0  0
   14.6317   -0.7374   21.0714 H   0  0  0  0  0  0  0  0  0  0  0  0
   11.8644    3.2333   20.9223 H   0  0  0  0  0  0  0  0  0  0  0  0
   13.6672    4.7924   20.5061 H   0  0  0  0  0  0  0  0  0  0  0  0
   14.8562    5.8127   22.3558 H   0  0  0  0  0  0  0  0  0  0  0  0
   14.1310    5.3656   24.6274 H   0  0  0  0  0  0  0  0  0  0  0  0
   12.3629    3.7737   25.0480 H   0  0  0  0  0  0  0  0  0  0  0  0
  1  2  1  0  0  0  0
  1 17  1  0  0  0  0
  1 18  1  0  0  0  0
  1 19  1  0  0  0  0
  2  3  1  0  0  0  0
  2  4  1  0  0  0  0
  2 20  1  0  0  0  0
  3 21  1  0  0  0  0
  3 22  1  0  0  0  0
  3 23  1  0  0  0  0
  4  5  1  0  0  0  0
  4 11  1  0  0  0  0
  4 24  1  1  0  0  0
  5  6  1  0  0  0  0
  5 25  1  0  0  0  0
  5 26  1  0  0  0  0
  6  7  1  0  0  0  0
  6  8  1  0  0  0  0
  6 27  1  6  0  0  0
  7 28  1  0  0  0  0
  7 29  1  0  0  0  0
  8  9  2  0  0  0  0
  8 10  1  0  0  0  0
 10 30  1  0  0  0  0
 11 12  2  0  0  0  0
 11 16  1  0  0  0  0
 12 13  1  0  0  0  0
 12 31  1  0  0  0  0
 13 14  2  0  0  0  0
 13 32  1  0  0  0  0
 14 15  1  0  0  0  0
 14 33  1  0  0  0  0
 15 16  2  0  0  0  0
 15 34  1  0  0  0  0
 16 35  1  0  0  0  0
M  END
>  <CHROM.1>
-54.57074740,-178.22602854,-83.06038943,49.96281180,-40.97119197,12.08332987
1.79745609,22.77151668,1.58640652,0.18040186,0.10184990

>  <Name>
CC(C)C(C[C@@H](N)C(=O)O)c1ccccc1

>  <RI>
0

>  <Rbt.Current_Directory>
/home/gse84885/github/im/docking-validation/targets/mpro/expts/jackall/work/Mpro-x0072_0/work/22/8391ad9d483c133c9101f8df79e616

>  <Rbt.Executable>
rbdock ($Id: //depot/dev/client3/rdock/2013.1/src/exe/rbdock.cxx#4 $)

>  <Rbt.Library>
libRbt.so (2013.1, Build901 2013/11/27)

>  <Rbt.Parameter_File>
/rDock_2013.1/data/scripts/dock.prm

>  <Rbt.Receptor>
docking-global.prm

>  <SCORE>
-8.43274

>  <SCORE.INTER>
-7.32671

>  <SCORE.INTER.CONST>
1

>  <SCORE.INTER.POLAR>
0

>  <SCORE.INTER.REPUL>
0

>  <SCORE.INTER.ROT>
5

>  <SCORE.INTER.VDW>
-17.7267

>  <SCORE.INTER.norm>
-0.457919

>  <SCORE.INTRA>
-1.10603

>  <SCORE.INTRA.DIHEDRAL>
-0.60644

>  <SCORE.INTRA.DIHEDRAL.0>
5.33509

>  <SCORE.INTRA.POLAR>
0

>  <SCORE.INTRA.POLAR.0>
0

>  <SCORE.INTRA.REPUL>
0

>  <SCORE.INTRA.REPUL.0>
0

>  <SCORE.INTRA.VDW>
-0.802808

>  <SCORE.INTRA.VDW.0>
-0.410869

>  <SCORE.INTRA.norm>
-0.0691267

>  <SCORE.RESTR>
0

>  <SCORE.RESTR.CAVITY>
0

>  <SCORE.RESTR.norm>
0

>  <SCORE.SYSTEM>
0

>  <SCORE.SYSTEM.CONST>
0

>  <SCORE.SYSTEM.DIHEDRAL>
0

>  <SCORE.SYSTEM.norm>
0

>  <SCORE.heavy>
16

>  <SCORE.norm>
-0.527046

>  <XChemDeepScore>
0.982249

>  <SuCOS_Max_Score>
0.41002232191420412

>  <SuCOS_Max_FeatureMap_Score>
0.21589509575938601

>  <SuCOS_Max_Protrude_Score>
0.60414954806902221

>  <SuCOS_Max_Index>
1

>  <SuCOS_Cum_Score>
1.8281273921261374

>  <SuCOS_Cum_FeatureMap_Score>
0.52293472720356138

>  <SuCOS_Cum_Protrude_Score>
3.1333200570487136

$$$$
