@<TRIPOS>MOLECULE
hits.sdf
14 14 1 0 0
SMALL
NO_CHARGES


@<TRIPOS>ATOM
      1 C1         11.9315   -3.4605   21.4350 C.3       1 UNK    0.0000
      2 O1         12.6135   -3.7679   22.6212 O.3       1 UNK    0.0000
      3 C2         13.4261   -2.7459   23.1357 C.2       1 UNK    0.0000
      4 O2         14.5686   -2.9557   23.3271 O.2       1 UNK    0.0000
      5 C3         12.8416   -1.3687   23.4394 C.ar      1 UNK    0.0000
      6 C4         11.6129   -1.2504   24.0821 C.ar      1 UNK    0.0000
      7 C5         11.0932    0.0112   24.3395 C.ar      1 UNK    0.0000
      8 C6         11.8151    1.1345   23.9474 C.ar      1 UNK    0.0000
      9 C7         13.0357    1.0149   23.3016 C.ar      1 UNK    0.0000
     10 C8         13.5467   -0.2406   23.0472 C.ar      1 UNK    0.0000
     11 S1         11.1691    2.7864   24.2627 S.o2      1 UNK    0.0000
     12 O3         12.1912    3.7967   23.9734 O.2       1 UNK    0.0000
     13 O4         10.9164    2.9717   25.6933 O.2       1 UNK    0.0000
     14 N1          9.7659    3.0525   23.3174 N.3       1 UNK    0.0000
@<TRIPOS>BOND
     1    1    2 1
     2    2    3 1
     3    3    4 2
     4    3    5 1
     5    5    6 ar
     6    5   10 ar
     7    6    7 ar
     8   10    9 ar
     9    7    8 ar
    10    8    9 ar
    11    8   11 1
    12   11   12 2
    13   11   13 2
    14   11   14 1
@<TRIPOS>SUBSTRUCTURE
     1 UNK     1 RESIDUE           4 A     UNK     0 ROOT
