COC(=O)c1ccc(N(C)S(=O)(=O)Cl)cc1
 OpenBabel03122003513D

 16 16  0  0  0  0  0  0  0  0999 V2000
   12.9506    4.2910   23.6602 C   0  0  0  0  0  0  0  0  0  0  0  0
   11.8647    3.4418   23.2800 O   0  0  0  0  0  0  0  0  0  0  0  0
   12.2451    2.2046   22.8728 C   0  0  0  0  0  0  0  0  0  0  0  0
   13.3505    1.7097   23.0291 O   0  0  0  0  0  0  0  0  0  0  0  0
   11.1319    1.5090   22.1684 C   0  0  0  0  0  0  0  0  0  0  0  0
    9.9663    2.2373   21.8801 C   0  0  0  0  0  0  0  0  0  0  0  0
    8.8738    1.6218   21.2552 C   0  0  0  0  0  0  0  0  0  0  0  0
    8.9447    0.2696   20.9139 C   0  0  0  0  0  0  0  0  0  0  0  0
    7.8523   -0.4303   20.3137 N   0  0  0  0  0  0  0  0  0  0  0  0
    6.6869   -0.7425   21.1544 C   0  0  0  0  0  0  0  0  0  0  0  0
    7.5413   -0.1365   18.6695 S   0  0  0  0  0  0  0  0  0  0  0  0
    7.0310    1.2059   18.4977 O   0  0  0  0  0  0  0  0  0  0  0  0
    8.6712   -0.6223   17.9049 O   0  0  0  0  0  0  0  0  0  0  0  0
    5.9969   -1.3651   18.1204 Cl  0  0  0  0  0  0  0  0  0  0  0  0
   10.1094   -0.4540   21.1778 C   0  0  0  0  0  0  0  0  0  0  0  0
   11.1987    0.1583   21.8069 C   0  0  0  0  0  0  0  0  0  0  0  0
  1  2  1  0  0  0  0
  2  3  1  0  0  0  0
  3  4  2  0  0  0  0
  3  5  1  0  0  0  0
  5  6  2  0  0  0  0
  5 16  1  0  0  0  0
  6  7  1  0  0  0  0
  7  8  2  0  0  0  0
  8  9  1  0  0  0  0
  8 15  1  0  0  0  0
  9 10  1  0  0  0  0
  9 11  1  0  0  0  0
 11 12  2  0  0  0  0
 11 13  2  0  0  0  0
 11 14  1  0  0  0  0
 15 16  2  0  0  0  0
M  END
>  <CHROM.1>
13.62393301,7.71237009,-72.24383256,-69.52312941,9.19686243,0.68466940,20.61463305
0.59277934,-0.56586070,0.25130054

>  <Name>
COC(=O)c1ccc(N(C)S(=O)(=O)Cl)cc1

>  <RI>
0

>  <Rbt.Current_Directory>
/home/gse84885/github/im/docking-validation/targets/mpro/expts/jackall/work/Mpro-x0072_0/work/56/9a09767cd1716521d9e93ff110dac2

>  <Rbt.Executable>
rbdock ($Id: //depot/dev/client3/rdock/2013.1/src/exe/rbdock.cxx#4 $)

>  <Rbt.Library>
libRbt.so (2013.1, Build901 2013/11/27)

>  <Rbt.Parameter_File>
/rDock_2013.1/data/scripts/dock.prm

>  <Rbt.Receptor>
docking-global.prm

>  <SCORE>
-8.35007

>  <SCORE.INTER>
-9.55677

>  <SCORE.INTER.CONST>
1

>  <SCORE.INTER.POLAR>
0

>  <SCORE.INTER.REPUL>
0

>  <SCORE.INTER.ROT>
4

>  <SCORE.INTER.VDW>
-18.9568

>  <SCORE.INTER.norm>
-0.597298

>  <SCORE.INTRA>
1.2067

>  <SCORE.INTRA.DIHEDRAL>
1.81788

>  <SCORE.INTRA.DIHEDRAL.0>
0.865925

>  <SCORE.INTRA.POLAR>
0

>  <SCORE.INTRA.POLAR.0>
0

>  <SCORE.INTRA.REPUL>
0

>  <SCORE.INTRA.REPUL.0>
0

>  <SCORE.INTRA.VDW>
0.29776

>  <SCORE.INTRA.VDW.0>
0.674695

>  <SCORE.INTRA.norm>
0.0754186

>  <SCORE.RESTR>
0

>  <SCORE.RESTR.CAVITY>
0

>  <SCORE.RESTR.norm>
0

>  <SCORE.SYSTEM>
0

>  <SCORE.SYSTEM.CONST>
0

>  <SCORE.SYSTEM.DIHEDRAL>
0

>  <SCORE.SYSTEM.norm>
0

>  <SCORE.heavy>
16

>  <SCORE.norm>
-0.52188

>  <XChemDeepScore>
0.967597

>  <SuCOS_Max_Score>
0.2748472024795095

>  <SuCOS_Max_FeatureMap_Score>
0.037819404959018907

>  <SuCOS_Max_Protrude_Score>
0.51187500000000008

>  <SuCOS_Max_Index>
5

>  <SuCOS_Cum_Score>
1.1794593434295888

>  <SuCOS_Cum_FeatureMap_Score>
0.10807798792929761

>  <SuCOS_Cum_Protrude_Score>
2.2508406989298799

$$$$
