@<TRIPOS>MOLECULE
hits.sdf
16 17 1 0 0
SMALL
NO_CHARGES


@<TRIPOS>ATOM
      1 C1         10.1482    3.3310   23.4434 C.3       1 UNK    0.0000
      2 C2         11.3526    3.5199   24.3624 C.2       1 UNK    0.0000
      3 O1         11.1773    3.9889   25.4218 O.2       1 UNK    0.0000
      4 N1         12.7115    3.1438   24.0267 N.am      1 UNK    0.0000
      5 C3         13.0681    2.5305   22.7668 C.3       1 UNK    0.0000
      6 C4         13.7013    1.1805   23.0635 C.3       1 UNK    0.0000
      7 C5         12.6987    0.1104   23.5025 C.ar      1 UNK    0.0000
      8 C6         11.6564    0.2251   24.4096 C.ar      1 UNK    0.0000
      9 N2         11.0387   -0.9503   24.4900 N.ar      1 UNK    0.0000
     10 C7         11.6407   -1.8526   23.6609 C.ar      1 UNK    0.0000
     11 C8         11.3660   -3.2174   23.3769 C.ar      1 UNK    0.0000
     12 C9         12.1615   -3.9041   22.4622 C.ar      1 UNK    0.0000
     13 C10        13.2234   -3.2492   21.8258 C.ar      1 UNK    0.0000
     14 C11        13.4894   -1.9155   22.1033 C.ar      1 UNK    0.0000
     15 C12        12.6840   -1.2160   23.0339 C.ar      1 UNK    0.0000
     16 F1         14.0110   -3.8997   20.9316 F         1 UNK    0.0000
@<TRIPOS>BOND
     1    1    2 1
     2    2    3 2
     3    2    4 am
     4    4    5 1
     5    5    6 1
     6    6    7 1
     7    7    8 ar
     8    7   15 ar
     9    8    9 ar
    10   15   10 ar
    11   15   14 ar
    12    9   10 ar
    13   10   11 ar
    14   11   12 ar
    15   12   13 ar
    16   13   14 ar
    17   13   16 1
@<TRIPOS>SUBSTRUCTURE
     1 UNK     1 RESIDUE           4 A     UNK     0 ROOT
