hits.sdf
 OpenBabel03112000213D

 16 17  0  0  0  0  0  0  0  0999 V2000
   10.1482    3.3310   23.4434 C   0  0  0  0  0  0  0  0  0  0  0  0
   11.3526    3.5199   24.3624 C   0  0  0  0  0  0  0  0  0  0  0  0
   11.1773    3.9889   25.4218 O   0  0  0  0  0  0  0  0  0  0  0  0
   12.7115    3.1438   24.0267 N   0  0  0  0  0  0  0  0  0  0  0  0
   13.0681    2.5305   22.7668 C   0  0  0  0  0  0  0  0  0  0  0  0
   13.7013    1.1805   23.0635 C   0  0  0  0  0  0  0  0  0  0  0  0
   12.6987    0.1104   23.5025 C   0  0  0  0  0  0  0  0  0  0  0  0
   11.6564    0.2251   24.4096 C   0  0  0  0  0  0  0  0  0  0  0  0
   11.0387   -0.9503   24.4900 N   0  0  0  0  0  0  0  0  0  0  0  0
   11.6407   -1.8526   23.6609 C   0  0  0  0  0  0  0  0  0  0  0  0
   11.3660   -3.2174   23.3769 C   0  0  0  0  0  0  0  0  0  0  0  0
   12.1615   -3.9041   22.4622 C   0  0  0  0  0  0  0  0  0  0  0  0
   13.2234   -3.2492   21.8258 C   0  0  0  0  0  0  0  0  0  0  0  0
   13.4894   -1.9155   22.1033 C   0  0  0  0  0  0  0  0  0  0  0  0
   12.6840   -1.2160   23.0339 C   0  0  0  0  0  0  0  0  0  0  0  0
   14.0110   -3.8997   20.9316 F   0  0  0  0  0  0  0  0  0  0  0  0
  1  2  1  0  0  0  0
  2  3  2  0  0  0  0
  2  4  1  0  0  0  0
  4  5  1  0  0  0  0
  5  6  1  0  0  0  0
  6  7  1  0  0  0  0
  7  8  2  0  0  0  0
  7 15  1  0  0  0  0
  8  9  1  0  0  0  0
  9 10  1  0  0  0  0
 10 11  1  0  0  0  0
 11 12  2  0  0  0  0
 12 13  1  0  0  0  0
 13 14  2  0  0  0  0
 13 16  1  0  0  0  0
 15 10  2  0  0  0  0
 15 14  1  0  0  0  0
M  END
$$$$
