CN(c1ccc(S(N)(=O)=O)cc1)C(C)(C)CN
 OpenBabel03122003513D

 17 17  0  0  0  0  0  0  0  0999 V2000
    9.6423   -0.3896   23.9374 C   0  0  0  0  0  0  0  0  0  0  0  0
    9.9635    0.4728   22.7713 N   0  0  0  0  0  0  0  0  0  0  0  0
    9.0744    0.4263   21.6755 C   0  0  0  0  0  0  0  0  0  0  0  0
    8.0783    1.4097   21.4674 C   0  0  0  0  0  0  0  0  0  0  0  0
    7.1724    1.3844   20.3912 C   0  0  0  0  0  0  0  0  0  0  0  0
    7.2737    0.3889   19.4321 C   0  0  0  0  0  0  0  0  0  0  0  0
    6.1488    0.3464   18.0727 S   0  0  0  0  0  0  0  0  0  0  0  0
    6.4183   -1.1938   17.4665 N   0  0  0  0  0  0  0  0  0  0  0  0
    4.7995    0.3452   18.5837 O   0  0  0  0  0  0  0  0  0  0  0  0
    6.6038    1.2709   17.0588 O   0  0  0  0  0  0  0  0  0  0  0  0
    8.2441   -0.5892   19.5692 C   0  0  0  0  0  0  0  0  0  0  0  0
    9.1200   -0.5606   20.6709 C   0  0  0  0  0  0  0  0  0  0  0  0
   11.4167    0.9393   22.6786 C   0  0  0  0  0  0  0  0  0  0  0  0
   11.5541    2.1856   21.7457 C   0  0  0  0  0  0  0  0  0  0  0  0
   11.9885    1.3949   24.0339 C   0  0  0  0  0  0  0  0  0  0  0  0
   12.2974   -0.1697   22.0208 C   0  0  0  0  0  0  0  0  0  0  0  0
   12.0596   -1.4782   22.7021 N   0  0  0  0  0  0  0  0  0  0  0  0
  1  2  1  0  0  0  0
  2  3  1  0  0  0  0
  2 13  1  0  0  0  0
  3  4  2  0  0  0  0
  3 12  1  0  0  0  0
  4  5  1  0  0  0  0
  5  6  2  0  0  0  0
  6  7  1  0  0  0  0
  6 11  1  0  0  0  0
  7  8  1  0  0  0  0
  7  9  2  0  0  0  0
  7 10  2  0  0  0  0
 11 12  2  0  0  0  0
 13 14  1  0  0  0  0
 13 15  1  0  0  0  0
 13 16  1  0  0  0  0
 16 17  1  0  0  0  0
M  END
>  <CHROM.1>
99.48125880,-160.80152119,-166.03404029,-50.33921894,8.71415055,0.37199186
20.61941337,-0.36673443,0.66609134,-2.61275536

>  <Name>
CN(c1ccc(S(N)(=O)=O)cc1)C(C)(C)CN

>  <RI>
0

>  <Rbt.Current_Directory>
/home/gse84885/github/im/docking-validation/targets/mpro/expts/jackall/work/Mpro-x0072_0/work/93/34cb2dc0fe306b389a620c2cb7d18a

>  <Rbt.Executable>
rbdock ($Id: //depot/dev/client3/rdock/2013.1/src/exe/rbdock.cxx#4 $)

>  <Rbt.Library>
libRbt.so (2013.1, Build901 2013/11/27)

>  <Rbt.Parameter_File>
/rDock_2013.1/data/scripts/dock.prm

>  <Rbt.Receptor>
docking-global.prm

>  <SCORE>
-13.0441

>  <SCORE.INTER>
-7.42679

>  <SCORE.INTER.CONST>
1

>  <SCORE.INTER.POLAR>
0

>  <SCORE.INTER.REPUL>
0.0368537

>  <SCORE.INTER.ROT>
4

>  <SCORE.INTER.VDW>
-17.0111

>  <SCORE.INTER.norm>
-0.43687

>  <SCORE.INTRA>
-5.61733

>  <SCORE.INTRA.DIHEDRAL>
-0.2716

>  <SCORE.INTRA.DIHEDRAL.0>
3.0356

>  <SCORE.INTRA.POLAR>
0

>  <SCORE.INTRA.POLAR.0>
0

>  <SCORE.INTRA.REPUL>
0

>  <SCORE.INTRA.REPUL.0>
0

>  <SCORE.INTRA.VDW>
-5.48153

>  <SCORE.INTRA.VDW.0>
7.37589

>  <SCORE.INTRA.norm>
-0.330431

>  <SCORE.RESTR>
0

>  <SCORE.RESTR.CAVITY>
0

>  <SCORE.RESTR.norm>
0

>  <SCORE.SYSTEM>
0

>  <SCORE.SYSTEM.CONST>
0

>  <SCORE.SYSTEM.DIHEDRAL>
0

>  <SCORE.SYSTEM.norm>
0

>  <SCORE.heavy>
17

>  <SCORE.norm>
-0.767301

>  <XChemDeepScore>
0.974632

>  <SuCOS_Max_Score>
0.39782132510574331

>  <SuCOS_Max_FeatureMap_Score>
0.068085891202946766

>  <SuCOS_Max_Protrude_Score>
0.72755675900853989

>  <SuCOS_Max_Index>
5

>  <SuCOS_Cum_Score>
1.6924484512396629

>  <SuCOS_Cum_FeatureMap_Score>
0.091849303591525142

>  <SuCOS_Cum_Protrude_Score>
3.2930475988878003

$$$$
