COC(=O)c1ccc(CNC(=N)N)cc1
 OpenBabel03122003513D

 15 15  0  0  0  0  0  0  0  0999 V2000
   10.1506   -3.3575   24.1138 C   0  0  0  0  0  0  0  0  0  0  0  0
   10.8232   -2.1052   23.9643 O   0  0  0  0  0  0  0  0  0  0  0  0
   10.5673   -1.4794   22.7897 C   0  0  0  0  0  0  0  0  0  0  0  0
    9.8773   -1.9086   21.8819 O   0  0  0  0  0  0  0  0  0  0  0  0
   11.2547   -0.1570   22.7452 C   0  0  0  0  0  0  0  0  0  0  0  0
   12.1799    0.1403   23.7510 C   0  0  0  0  0  0  0  0  0  0  0  0
   12.8401    1.3739   23.7678 C   0  0  0  0  0  0  0  0  0  0  0  0
   12.5864    2.3424   22.7844 C   0  0  0  0  0  0  0  0  0  0  0  0
   13.2814    3.6803   22.8632 C   0  0  0  0  0  0  0  0  0  0  0  0
   13.1991    4.2256   24.2244 N   0  0  0  0  0  0  0  0  0  0  0  0
   12.9954    5.5228   24.5041 C   0  0  0  0  0  0  0  0  0  0  0  0
   12.8554    6.4520   23.5509 N   0  0  0  0  0  0  0  0  0  0  0  0
   12.9377    5.9232   25.7805 N   0  0  0  0  0  0  0  0  0  0  0  0
   11.6576    2.0405   21.7738 C   0  0  0  0  0  0  0  0  0  0  0  0
   10.9990    0.7991   21.7541 C   0  0  0  0  0  0  0  0  0  0  0  0
  1  2  1  0  0  0  0
  2  3  1  0  0  0  0
  3  4  2  0  0  0  0
  3  5  1  0  0  0  0
  5  6  2  0  0  0  0
  5 15  1  0  0  0  0
  6  7  1  0  0  0  0
  7  8  2  0  0  0  0
  8  9  1  0  0  0  0
  8 14  1  0  0  0  0
  9 10  1  0  0  0  0
 10 11  1  0  0  0  0
 11 12  1  0  0  0  0
 11 13  2  0  0  0  0
 14 15  2  0  0  0  0
M  END
>  <CHROM.1>
-2.58345003,9.73558385,-46.99842472,-140.72744865,11.84211093,1.48101722
23.36247280,-2.78672070,-1.21638379,-1.04536563

>  <Name>
COC(=O)c1ccc(CNC(=N)N)cc1

>  <RI>
0

>  <Rbt.Current_Directory>
/home/gse84885/github/im/docking-validation/targets/mpro/expts/jackall/work/Mpro-x0072_0/work/b9/ce7e3087a4785d9ea9b91aa93221f6

>  <Rbt.Executable>
rbdock ($Id: //depot/dev/client3/rdock/2013.1/src/exe/rbdock.cxx#4 $)

>  <Rbt.Library>
libRbt.so (2013.1, Build901 2013/11/27)

>  <Rbt.Parameter_File>
/rDock_2013.1/data/scripts/dock.prm

>  <Rbt.Receptor>
docking-global.prm

>  <SCORE>
-7.27057

>  <SCORE.INTER>
-7.00296

>  <SCORE.INTER.CONST>
1

>  <SCORE.INTER.POLAR>
0

>  <SCORE.INTER.REPUL>
0

>  <SCORE.INTER.ROT>
4

>  <SCORE.INTER.VDW>
-16.403

>  <SCORE.INTER.norm>
-0.466864

>  <SCORE.INTRA>
-0.267615

>  <SCORE.INTRA.DIHEDRAL>
-1.32172

>  <SCORE.INTRA.DIHEDRAL.0>
3.1075

>  <SCORE.INTRA.POLAR>
0

>  <SCORE.INTRA.POLAR.0>
0

>  <SCORE.INTRA.REPUL>
0

>  <SCORE.INTRA.REPUL.0>
0

>  <SCORE.INTRA.VDW>
0.393245

>  <SCORE.INTRA.VDW.0>
1.42268

>  <SCORE.INTRA.norm>
-0.017841

>  <SCORE.RESTR>
0

>  <SCORE.RESTR.CAVITY>
0

>  <SCORE.RESTR.norm>
0

>  <SCORE.SYSTEM>
0

>  <SCORE.SYSTEM.CONST>
0

>  <SCORE.SYSTEM.DIHEDRAL>
0

>  <SCORE.SYSTEM.norm>
0

>  <SCORE.heavy>
15

>  <SCORE.norm>
-0.484705

>  <XChemDeepScore>
0.989321

>  <SuCOS_Max_Score>
0.32380594377593208

>  <SuCOS_Max_FeatureMap_Score>
0.16191537013892884

>  <SuCOS_Max_Protrude_Score>
0.48569651741293529

>  <SuCOS_Max_Index>
1

>  <SuCOS_Cum_Score>
1.7199978429665861

>  <SuCOS_Cum_FeatureMap_Score>
0.59757807626686665

>  <SuCOS_Cum_Protrude_Score>
2.8424176096663056

$$$$
