CN1CCCc2cc(C(=N)NO)ccc21
 OpenBabel03122003533D

 30 31  0  0  0  0  0  0  0  0999 V2000
   12.1966    2.5490   22.6385 C   0  0  0  0  0  0  0  0  0  0  0  0
   11.9270    1.1764   22.2197 N   0  0  0  0  0  0  0  0  0  0  0  0
   12.7583    0.1362   22.8304 C   0  0  0  0  0  0  0  0  0  0  0  0
   12.6971   -1.1447   22.0198 C   0  0  0  0  0  0  0  0  0  0  0  0
   11.2614   -1.6393   21.9607 C   0  0  0  0  0  0  0  0  0  0  0  0
   10.3094   -0.5385   21.5645 C   0  0  0  0  0  0  0  0  0  0  0  0
    9.0450   -0.8978   21.0408 C   0  0  0  0  0  0  0  0  0  0  0  0
    8.1174    0.0791   20.6853 C   0  0  0  0  0  0  0  0  0  0  0  0
    6.8096   -0.2873   20.0512 C   0  0  0  0  0  0  0  0  0  0  0  0
    6.4308   -1.5261   19.9084 N   0  0  0  0  0  0  0  0  0  0  0  0
    5.9512    0.7105   19.6286 N   0  0  0  0  0  0  0  0  0  0  0  0
    4.6093    0.2876   19.6558 O   0  0  0  0  0  0  0  0  0  0  0  0
    8.4450    1.4224   20.8734 C   0  0  0  0  0  0  0  0  0  0  0  0
    9.6978    1.7755   21.4002 C   0  0  0  0  0  0  0  0  0  0  0  0
   10.6569    0.8176   21.7571 C   0  0  0  0  0  0  0  0  0  0  0  0
   13.2144    2.6309   22.9584 H   0  0  0  0  0  0  0  0  0  0  0  0
   11.5464    2.8093   23.4475 H   0  0  0  0  0  0  0  0  0  0  0  0
   12.0265    3.2126   21.8166 H   0  0  0  0  0  0  0  0  0  0  0  0
   12.4054   -0.0584   23.8216 H   0  0  0  0  0  0  0  0  0  0  0  0
   13.7719    0.4779   22.8572 H   0  0  0  0  0  0  0  0  0  0  0  0
   13.3118   -1.8887   22.4818 H   0  0  0  0  0  0  0  0  0  0  0  0
   13.0502   -0.9558   21.0275 H   0  0  0  0  0  0  0  0  0  0  0  0
   10.9819   -2.0094   22.9250 H   0  0  0  0  0  0  0  0  0  0  0  0
   11.2043   -2.4121   21.2228 H   0  0  0  0  0  0  0  0  0  0  0  0
    8.8072   -1.8948   20.9208 H   0  0  0  0  0  0  0  0  0  0  0  0
    7.0210   -2.2581   20.2002 H   0  0  0  0  0  0  0  0  0  0  0  0
    6.2428    1.6066   19.3437 H   0  0  0  0  0  0  0  0  0  0  0  0
    4.5655   -0.6291   19.9699 H   0  0  0  0  0  0  0  0  0  0  0  0
    7.7651    2.1579   20.6248 H   0  0  0  0  0  0  0  0  0  0  0  0
    9.9201    2.7750   21.5291 H   0  0  0  0  0  0  0  0  0  0  0  0
  1  2  1  0  0  0  0
  1 16  1  0  0  0  0
  1 17  1  0  0  0  0
  1 18  1  0  0  0  0
  2  3  1  0  0  0  0
  2 15  1  0  0  0  0
  3  4  1  0  0  0  0
  3 19  1  0  0  0  0
  3 20  1  0  0  0  0
  4  5  1  0  0  0  0
  4 21  1  0  0  0  0
  4 22  1  0  0  0  0
  5  6  1  0  0  0  0
  5 23  1  0  0  0  0
  5 24  1  0  0  0  0
  6  7  1  0  0  0  0
  6 15  2  0  0  0  0
  7  8  2  0  0  0  0
  7 25  1  0  0  0  0
  8  9  1  0  0  0  0
  8 13  1  0  0  0  0
  9 10  2  0  0  0  0
  9 11  1  0  0  0  0
 10 26  1  0  0  0  0
 11 12  1  0  0  0  0
 11 27  1  0  0  0  0
 12 28  1  0  0  0  0
 13 14  2  0  0  0  0
 13 29  1  0  0  0  0
 14 15  1  0  0  0  0
 14 30  1  0  0  0  0
M  END
>  <CHROM.1>
5.99202936,9.38359614,0.20587798,21.21735743,0.10266345,-0.37245035,0.09006407

>  <Name>
CN1CCCc2cc(C(=N)NO)ccc21

>  <RI>
0

>  <Rbt.Current_Directory>
/home/gse84885/github/im/docking-validation/targets/mpro/expts/jackall/work/Mpro-x0072_0/work/5f/020b32ef2d2c7ee4514735cb0f44fe

>  <Rbt.Executable>
rbdock ($Id: //depot/dev/client3/rdock/2013.1/src/exe/rbdock.cxx#4 $)

>  <Rbt.Library>
libRbt.so (2013.1, Build901 2013/11/27)

>  <Rbt.Parameter_File>
/rDock_2013.1/data/scripts/dock.prm

>  <Rbt.Receptor>
docking-global.prm

>  <SCORE>
-10.2088

>  <SCORE.INTER>
-8.86373

>  <SCORE.INTER.CONST>
1

>  <SCORE.INTER.POLAR>
0

>  <SCORE.INTER.REPUL>
0.0228927

>  <SCORE.INTER.ROT>
1

>  <SCORE.INTER.VDW>
-15.3782

>  <SCORE.INTER.norm>
-0.590915

>  <SCORE.INTRA>
-1.3451

>  <SCORE.INTRA.DIHEDRAL>
-3.00917

>  <SCORE.INTRA.DIHEDRAL.0>
3.07446

>  <SCORE.INTRA.POLAR>
0

>  <SCORE.INTRA.POLAR.0>
0

>  <SCORE.INTRA.REPUL>
0

>  <SCORE.INTRA.REPUL.0>
0

>  <SCORE.INTRA.VDW>
0.159483

>  <SCORE.INTRA.VDW.0>
-0.289769

>  <SCORE.INTRA.norm>
-0.0896733

>  <SCORE.RESTR>
0

>  <SCORE.RESTR.CAVITY>
0

>  <SCORE.RESTR.norm>
0

>  <SCORE.SYSTEM>
0

>  <SCORE.SYSTEM.CONST>
0

>  <SCORE.SYSTEM.DIHEDRAL>
0

>  <SCORE.SYSTEM.norm>
0

>  <SCORE.heavy>
15

>  <SCORE.norm>
-0.680589

>  <XChemDeepScore>
0.997869

>  <SuCOS_Max_Score>
0.31153892484235846

>  <SuCOS_Max_FeatureMap_Score>
0.011019637626504795

>  <SuCOS_Max_Protrude_Score>
0.61205821205821209

>  <SuCOS_Max_Index>
5

>  <SuCOS_Cum_Score>
1.4335825191811298

>  <SuCOS_Cum_FeatureMap_Score>
0.036020248357879307

>  <SuCOS_Cum_Protrude_Score>
2.8311447900043802

$$$$
