
 OpenBabel03142011073D

 34 35  0  0  0  0  0  0  0  0999 V2000
    9.3830    0.8760   21.0230 O   0  0  0  0  0  0  0  0  0  0  0  0
    8.8150    0.1360   21.7590 C   0  0  0  0  0  0  0  0  0  0  0  0
    9.3930   -0.3170   23.0940 C   0  0  0  0  0  0  0  0  0  0  0  0
   10.9190   -0.3100   23.0710 C   0  0  0  0  0  0  0  0  0  0  0  0
   11.4420   -1.3750   22.1110 C   0  0  0  0  0  0  0  0  0  0  0  0
   12.9510   -1.5510   22.2110 C   0  0  0  0  0  0  0  0  0  0  0  0
   13.4350   -1.7070   23.6420 C   0  0  0  0  0  0  0  0  0  0  0  0
   12.9210   -0.5420   24.4710 C   0  0  0  0  0  0  0  0  0  0  0  0
   11.4050   -0.5680   24.4890 C   0  0  0  0  0  0  0  0  0  0  0  0
    7.5350   -0.3690   21.3780 N   0  0  0  0  0  0  0  0  0  0  0  0
    6.9680    0.0670   20.1430 C   0  0  0  0  0  0  0  0  0  0  0  0
    5.7290    0.6970   20.1920 C   0  0  0  0  0  0  0  0  0  0  0  0
    5.2090    1.1130   18.9670 C   0  0  0  0  0  0  0  0  0  0  0  0
    5.9450    0.8930   17.8140 C   0  0  0  0  0  0  0  0  0  0  0  0
    7.1270    0.2980   17.8450 N   0  0  0  0  0  0  0  0  0  0  0  0
    7.6630   -0.1160   18.9630 C   0  0  0  0  0  0  0  0  0  0  0  0
    9.0525   -1.3098   23.3019 H   0  0  0  0  0  0  0  0  0  0  0  0
    9.0644    0.3634   23.8516 H   0  0  0  0  0  0  0  0  0  0  0  0
   11.2848    0.6346   22.7262 H   0  0  0  0  0  0  0  0  0  0  0  0
   11.1945   -1.0879   21.1104 H   0  0  0  0  0  0  0  0  0  0  0  0
   10.9853   -2.3062   22.3743 H   0  0  0  0  0  0  0  0  0  0  0  0
   13.4239   -0.6921   21.7825 H   0  0  0  0  0  0  0  0  0  0  0  0
   13.2047   -2.4487   21.6869 H   0  0  0  0  0  0  0  0  0  0  0  0
   14.5048   -1.7146   23.6595 H   0  0  0  0  0  0  0  0  0  0  0  0
   13.0692   -2.6270   24.0478 H   0  0  0  0  0  0  0  0  0  0  0  0
   13.2573    0.3782   24.0409 H   0  0  0  0  0  0  0  0  0  0  0  0
   13.2921   -0.6234   25.4713 H   0  0  0  0  0  0  0  0  0  0  0  0
   11.0613   -1.5246   24.8233 H   0  0  0  0  0  0  0  0  0  0  0  0
   11.0262    0.1783   25.1557 H   0  0  0  0  0  0  0  0  0  0  0  0
    7.0535   -1.0048   21.9552 H   0  0  0  0  0  0  0  0  0  0  0  0
    5.2256    0.8473   21.0803 H   0  0  0  0  0  0  0  0  0  0  0  0
    4.2890    1.5782   18.9198 H   0  0  0  0  0  0  0  0  0  0  0  0
    5.5615    1.2012   16.9068 H   0  0  0  0  0  0  0  0  0  0  0  0
    8.5890   -0.5715   18.9643 H   0  0  0  0  0  0  0  0  0  0  0  0
  1  2  2  0  0  0  0
  2  3  1  0  0  0  0
  2 10  1  0  0  0  0
  3 17  1  0  0  0  0
  3 18  1  0  0  0  0
  4  3  1  0  0  0  0
  4  5  1  0  0  0  0
  4  9  1  0  0  0  0
  4 19  1  0  0  0  0
  5  6  1  0  0  0  0
  5 20  1  0  0  0  0
  5 21  1  0  0  0  0
  6  7  1  0  0  0  0
  6 22  1  0  0  0  0
  6 23  1  0  0  0  0
  7  8  1  0  0  0  0
  7 24  1  0  0  0  0
  7 25  1  0  0  0  0
  8 26  1  0  0  0  0
  8 27  1  0  0  0  0
  9  8  1  0  0  0  0
  9 28  1  0  0  0  0
  9 29  1  0  0  0  0
 10 11  1  0  0  0  0
 10 30  1  0  0  0  0
 11 12  2  0  0  0  0
 11 16  1  0  0  0  0
 12 13  1  0  0  0  0
 12 31  1  0  0  0  0
 13 14  2  0  0  0  0
 13 32  1  0  0  0  0
 14 15  1  0  0  0  0
 14 33  1  0  0  0  0
 16 15  2  0  0  0  0
 16 34  1  0  0  0  0
M  END
$$$$
