CN(O)C(=O)C(CN)c1ccccc1
 OpenBabel03122003513D

 14 14  0  0  0  0  0  0  0  0999 V2000
   11.8792   -1.4025   22.3232 C   0  0  0  0  0  0  0  0  0  0  0  0
   12.8680   -0.3345   22.2620 N   0  0  0  0  0  0  0  0  0  0  0  0
   14.1907   -0.7613   22.0314 O   0  0  0  0  0  0  0  0  0  0  0  0
   12.6999    0.8607   22.9173 C   0  0  0  0  0  0  0  0  0  0  0  0
   12.9940    1.0309   24.1080 O   0  0  0  0  0  0  0  0  0  0  0  0
   12.0922    2.0170   22.1263 C   0  0  1  0  0  0  0  0  0  0  0  0
   10.5592    1.9652   22.3036 C   0  0  0  0  0  0  0  0  0  0  0  0
    9.9311    0.8434   21.5418 N   0  0  0  0  0  0  0  0  0  0  0  0
   12.6231    3.3933   22.5007 C   0  0  0  0  0  0  0  0  0  0  0  0
   13.0388    4.2591   21.4738 C   0  0  0  0  0  0  0  0  0  0  0  0
   13.4868    5.5488   21.7648 C   0  0  0  0  0  0  0  0  0  0  0  0
   13.5221    5.9936   23.0828 C   0  0  0  0  0  0  0  0  0  0  0  0
   13.1148    5.1484   24.1120 C   0  0  0  0  0  0  0  0  0  0  0  0
   12.6693    3.8551   23.8258 C   0  0  0  0  0  0  0  0  0  0  0  0
  1  2  1  0  0  0  0
  2  3  1  0  0  0  0
  2  4  1  0  0  0  0
  4  5  2  0  0  0  0
  4  6  1  0  0  0  0
  6  7  1  1  0  0  0
  6  9  1  0  0  0  0
  7  8  1  0  0  0  0
  9 10  2  0  0  0  0
  9 14  1  0  0  0  0
 10 11  1  0  0  0  0
 11 12  2  0  0  0  0
 12 13  1  0  0  0  0
 13 14  2  0  0  0  0
M  END
>  <CHROM.1>
84.12741139,90.28777098,-73.03037401,131.31125402,12.54976949,2.18716228
22.60000128,1.72979356,0.35714895,-3.10089208

>  <Name>
CN(O)C(=O)C(CN)c1ccccc1

>  <RI>
0

>  <Rbt.Current_Directory>
/home/gse84885/github/im/docking-validation/targets/mpro/expts/jackall/work/Mpro-x0072_0/work/5c/dca04e63b9a60e3b0a0a81b0a01189

>  <Rbt.Executable>
rbdock ($Id: //depot/dev/client3/rdock/2013.1/src/exe/rbdock.cxx#4 $)

>  <Rbt.Library>
libRbt.so (2013.1, Build901 2013/11/27)

>  <Rbt.Parameter_File>
/rDock_2013.1/data/scripts/dock.prm

>  <Rbt.Receptor>
docking-global.prm

>  <SCORE>
-9.40799

>  <SCORE.INTER>
-8.19204

>  <SCORE.INTER.CONST>
1

>  <SCORE.INTER.POLAR>
0

>  <SCORE.INTER.REPUL>
0.0194462

>  <SCORE.INTER.ROT>
4

>  <SCORE.INTER.VDW>
-17.6893

>  <SCORE.INTER.norm>
-0.585146

>  <SCORE.INTRA>
-1.21595

>  <SCORE.INTRA.DIHEDRAL>
0.566523

>  <SCORE.INTRA.DIHEDRAL.0>
2.96195

>  <SCORE.INTRA.POLAR>
0

>  <SCORE.INTRA.POLAR.0>
0

>  <SCORE.INTRA.REPUL>
0

>  <SCORE.INTRA.REPUL.0>
0

>  <SCORE.INTRA.VDW>
-1.49921

>  <SCORE.INTRA.VDW.0>
0.128964

>  <SCORE.INTRA.norm>
-0.0868537

>  <SCORE.RESTR>
0

>  <SCORE.RESTR.CAVITY>
0

>  <SCORE.RESTR.norm>
0

>  <SCORE.SYSTEM>
0

>  <SCORE.SYSTEM.CONST>
0

>  <SCORE.SYSTEM.DIHEDRAL>
0

>  <SCORE.SYSTEM.norm>
0

>  <SCORE.heavy>
14

>  <SCORE.norm>
-0.671999

>  <XChemDeepScore>
0.981227

>  <SuCOS_Max_Score>
0.32673376428168793

>  <SuCOS_Max_FeatureMap_Score>
0.11680638523280414

>  <SuCOS_Max_Protrude_Score>
0.53666114333057169

>  <SuCOS_Max_Index>
1

>  <SuCOS_Cum_Score>
1.5295735178097245

>  <SuCOS_Cum_FeatureMap_Score>
0.21832833792583492

>  <SuCOS_Cum_Protrude_Score>
2.8408186976936141

$$$$
