@<TRIPOS>MOLECULE
hits.sdf
15 16 1 0 0
SMALL
NO_CHARGES


@<TRIPOS>ATOM
      1 C1         10.3294   -2.7951   24.8661 C.3       1 UNK    0.0000
      2 N1         11.5272   -2.7370   24.0555 N.pl3     1 UNK    0.0000
      3 C2         11.7773   -3.8456   23.1777 C.3       1 UNK    0.0000
      4 C3         12.9810   -3.7499   22.2666 C.3       1 UNK    0.0000
      5 C4         14.0134   -2.7081   22.6597 C.3       1 UNK    0.0000
      6 C5         13.3340   -1.3649   23.0602 C.ar      1 UNK    0.0000
      7 C6         13.9354   -0.1315   22.7321 C.ar      1 UNK    0.0000
      8 C7         13.3093    1.0618   23.0915 C.ar      1 UNK    0.0000
      9 C8         12.0769    1.0007   23.7787 C.ar      1 UNK    0.0000
     10 C9         11.4742   -0.2155   24.1058 C.ar      1 UNK    0.0000
     11 C10        12.1096   -1.4214   23.7396 C.ar      1 UNK    0.0000
     12 S1         11.2262    2.5080   24.2759 S.o2      1 UNK    0.0000
     13 O1         10.8063    2.3348   25.6679 O.2       1 UNK    0.0000
     14 O2          9.9336    2.6240   23.5863 O.2       1 UNK    0.0000
     15 N2         12.2351    3.8647   24.0379 N.3       1 UNK    0.0000
@<TRIPOS>BOND
     1    1    2 1
     2    2    3 1
     3    2   11 1
     4    3    4 1
     5   11    6 ar
     6   11   10 ar
     7    4    5 1
     8    5    6 1
     9    6    7 ar
    10    7    8 ar
    11    8    9 ar
    12    9   10 ar
    13    9   12 1
    14   12   13 2
    15   12   14 2
    16   12   15 1
@<TRIPOS>SUBSTRUCTURE
     1 UNK     1 RESIDUE           4 A     UNK     0 ROOT
