COC(=O)c1cccc(C(=N)NO)c1
     RDKit          3D

 14 14  0  0  0  0  0  0  0  0999 V2000
    5.7668   -1.0418   19.1853 C   0  0  0  0  0  0  0  0  0  0  0  0
    6.9732   -1.1845   19.9386 O   0  0  0  0  0  0  0  0  0  0  0  0
    7.7601   -0.0850   19.9759 C   0  0  0  0  0  0  0  0  0  0  0  0
    7.5395    0.9936   19.4511 O   0  0  0  0  0  0  0  0  0  0  0  0
    8.9827   -0.3479   20.7841 C   0  0  0  0  0  0  0  0  0  0  0  0
    9.2437   -1.6039   21.3393 C   0  0  0  0  0  0  0  0  0  0  0  0
   10.4012   -1.8099   22.0844 C   0  0  0  0  0  0  0  0  0  0  0  0
   11.3052   -0.7636   22.2798 C   0  0  0  0  0  0  0  0  0  0  0  0
   11.0665    0.5172   21.7465 C   0  0  0  0  0  0  0  0  0  0  0  0
   12.0241    1.6308   21.9921 C   0  0  0  0  0  0  0  0  0  0  0  0
   12.9563    1.4441   22.9179 N   0  0  0  0  0  0  0  0  0  0  0  0
   11.8918    2.7425   21.2751 N   0  0  0  0  0  0  0  0  0  0  0  0
   12.7164    3.8568   21.4164 O   0  0  0  0  0  0  0  0  0  0  0  0
    9.8940    0.7058   20.9898 C   0  0  0  0  0  0  0  0  0  0  0  0
  1  2  1  0
  2  3  1  0
  3  4  2  0
  3  5  1  0
  5  6  2  0
  5 14  1  0
  6  7  1  0
  7  8  2  0
  8  9  1  0
  9 10  1  0
  9 14  2  0
 10 11  2  0
 10 12  1  0
 12 13  1  0
M  END
>  <CHROM.1>  (1) 
0.66592959,2.94160998,-12.24034683,9.83740202,0.40297328,21.04908263,2.82521729
0.51827035,2.78630916

>  <Name>  (1) 
COC(=O)c1cccc(C(=N)NO)c1

>  <RI>  (1) 
0

>  <Rbt.Current_Directory>  (1) 
/home/gse84885/github/im/docking-validation/targets/mpro/expts/jackall/work/Mpro-x0072_0/work/7a/ef919facae8b440a090385a58bcc5b

>  <Rbt.Executable>  (1) 
rbdock ($Id: //depot/dev/client3/rdock/2013.1/src/exe/rbdock.cxx#4 $)

>  <Rbt.Library>  (1) 
libRbt.so (2013.1, Build901 2013/11/27)

>  <Rbt.Parameter_File>  (1) 
/rDock_2013.1/data/scripts/dock.prm

>  <Rbt.Receptor>  (1) 
docking-global.prm

>  <SCORE>  (1) 
-7.04869

>  <SCORE.INTER>  (1) 
-5.4257

>  <SCORE.INTER.CONST>  (1) 
1

>  <SCORE.INTER.POLAR>  (1) 
0

>  <SCORE.INTER.REPUL>  (1) 
0.0509009

>  <SCORE.INTER.ROT>  (1) 
3

>  <SCORE.INTER.VDW>  (1) 
-14.0802

>  <SCORE.INTER.norm>  (1) 
-0.38755

>  <SCORE.INTRA>  (1) 
-1.62299

>  <SCORE.INTRA.DIHEDRAL>  (1) 
-3.74449

>  <SCORE.INTRA.DIHEDRAL.0>  (1) 
4.37421

>  <SCORE.INTRA.POLAR>  (1) 
0

>  <SCORE.INTRA.POLAR.0>  (1) 
0

>  <SCORE.INTRA.REPUL>  (1) 
0

>  <SCORE.INTRA.REPUL.0>  (1) 
0

>  <SCORE.INTRA.VDW>  (1) 
0.249254

>  <SCORE.INTRA.VDW.0>  (1) 
1.37195

>  <SCORE.INTRA.norm>  (1) 
-0.115928

>  <SCORE.RESTR>  (1) 
0

>  <SCORE.RESTR.CAVITY>  (1) 
0

>  <SCORE.RESTR.norm>  (1) 
0

>  <SCORE.SYSTEM>  (1) 
0

>  <SCORE.SYSTEM.CONST>  (1) 
0

>  <SCORE.SYSTEM.DIHEDRAL>  (1) 
0

>  <SCORE.SYSTEM.norm>  (1) 
0

>  <SCORE.heavy>  (1) 
14

>  <SCORE.norm>  (1) 
-0.503478

>  <XChemDeepScore>  (1) 
0.999403

>  <SuCOS_Max_Score>  (1) 
0.25658872200855048

>  <SuCOS_Max_FeatureMap_Score>  (1) 
0.0028584946737614169

>  <SuCOS_Max_Protrude_Score>  (1) 
0.51031894934333955

>  <SuCOS_Max_Index>  (1) 
5

>  <SuCOS_Cum_Score>  (1) 
1.1565470484499456

>  <SuCOS_Cum_FeatureMap_Score>  (1) 
0.029659195520862838

>  <SuCOS_Cum_Protrude_Score>  (1) 
2.283434901379028

$$$$
O=C(NO)Nc1ccccc1
     RDKit          3D

 11 11  0  0  0  0  0  0  0  0999 V2000
   13.0201    1.0693   24.5932 O   0  0  0  0  0  0  0  0  0  0  0  0
   12.7390    0.9469   23.4020 C   0  0  0  0  0  0  0  0  0  0  0  0
   12.4516   -0.2963   22.8560 N   0  0  0  0  0  0  0  0  0  0  0  0
   12.0340   -0.4237   21.5329 O   0  0  0  0  0  0  0  0  0  0  0  0
   12.6340    1.9445   22.4722 N   0  0  0  0  0  0  0  0  0  0  0  0
   12.8517    3.3150   22.6081 C   0  0  0  0  0  0  0  0  0  0  0  0
   12.9290    4.1784   21.5143 C   0  0  0  0  0  0  0  0  0  0  0  0
   13.1445    5.5450   21.7054 C   0  0  0  0  0  0  0  0  0  0  0  0
   13.2953    6.0575   22.9912 C   0  0  0  0  0  0  0  0  0  0  0  0
   13.2223    5.2022   24.0897 C   0  0  0  0  0  0  0  0  0  0  0  0
   12.9846    3.8364   23.8985 C   0  0  0  0  0  0  0  0  0  0  0  0
  1  2  2  0
  2  3  1  0
  2  5  1  0
  3  4  1  0
  5  6  1  0
  6  7  2  0
  6 11  1  0
  7  8  1  0
  8  9  2  0
  9 10  1  0
 10 11  2  0
M  END
>  <CHROM.1>  (2) 
168.57129745,12.82991020,2.73404497,22.88131995,-2.30856696,-1.36412519,-0.71393007

>  <Name>  (2) 
O=C(NO)Nc1ccccc1

>  <RI>  (2) 
0

>  <Rbt.Current_Directory>  (2) 
/home/gse84885/github/im/docking-validation/targets/mpro/expts/jackall/work/Mpro-x0072_0/work/64/178165698b1e7ae52e3ce9989cd57d

>  <Rbt.Executable>  (2) 
rbdock ($Id: //depot/dev/client3/rdock/2013.1/src/exe/rbdock.cxx#4 $)

>  <Rbt.Library>  (2) 
libRbt.so (2013.1, Build901 2013/11/27)

>  <Rbt.Parameter_File>  (2) 
/rDock_2013.1/data/scripts/dock.prm

>  <Rbt.Receptor>  (2) 
docking-global.prm

>  <SCORE>  (2) 
-6.53444

>  <SCORE.INTER>  (2) 
-6.72663

>  <SCORE.INTER.CONST>  (2) 
1

>  <SCORE.INTER.POLAR>  (2) 
0

>  <SCORE.INTER.REPUL>  (2) 
0

>  <SCORE.INTER.ROT>  (2) 
1

>  <SCORE.INTER.VDW>  (2) 
-13.1266

>  <SCORE.INTER.norm>  (2) 
-0.611512

>  <SCORE.INTRA>  (2) 
0.192188

>  <SCORE.INTRA.DIHEDRAL>  (2) 
-0.216462

>  <SCORE.INTRA.DIHEDRAL.0>  (2) 
0.480785

>  <SCORE.INTRA.POLAR>  (2) 
0

>  <SCORE.INTRA.POLAR.0>  (2) 
0

>  <SCORE.INTRA.REPUL>  (2) 
0

>  <SCORE.INTRA.REPUL.0>  (2) 
0

>  <SCORE.INTRA.VDW>  (2) 
0.300419

>  <SCORE.INTRA.VDW.0>  (2) 
-0.304209

>  <SCORE.INTRA.norm>  (2) 
0.0174717

>  <SCORE.RESTR>  (2) 
0

>  <SCORE.RESTR.CAVITY>  (2) 
0

>  <SCORE.RESTR.norm>  (2) 
0

>  <SCORE.SYSTEM>  (2) 
0

>  <SCORE.SYSTEM.CONST>  (2) 
0

>  <SCORE.SYSTEM.DIHEDRAL>  (2) 
0

>  <SCORE.SYSTEM.norm>  (2) 
0

>  <SCORE.heavy>  (2) 
11

>  <SCORE.norm>  (2) 
-0.59404

>  <XChemDeepScore>  (2) 
0.999372

>  <SuCOS_Max_Score>  (2) 
0.21482772733308764

>  <SuCOS_Max_FeatureMap_Score>  (2) 
0.00078776491088705398

>  <SuCOS_Max_Protrude_Score>  (2) 
0.42886768975528822

>  <SuCOS_Max_Index>  (2) 
1

>  <SuCOS_Cum_Score>  (2) 
1.0696679337443111

>  <SuCOS_Cum_FeatureMap_Score>  (2) 
0.060467262262121839

>  <SuCOS_Cum_Protrude_Score>  (2) 
2.0788686052265009

$$$$
N=C(NO)Nc1cccc(S(N)(=O)=O)c1
     RDKit          3D

 15 15  0  0  0  0  0  0  0  0999 V2000
    8.7194   -0.2883   19.6787 N   0  0  0  0  0  0  0  0  0  0  0  0
    9.1677    0.4661   20.6354 C   0  0  0  0  0  0  0  0  0  0  0  0
    8.4360    1.4915   21.1680 N   0  0  0  0  0  0  0  0  0  0  0  0
    7.1482    1.6095   20.6337 O   0  0  0  0  0  0  0  0  0  0  0  0
   10.3977    0.1974   21.1426 N   0  0  0  0  0  0  0  0  0  0  0  0
   11.2829    0.9431   21.9367 C   0  0  0  0  0  0  0  0  0  0  0  0
   12.3220    0.2578   22.5929 C   0  0  0  0  0  0  0  0  0  0  0  0
   13.2002    0.9103   23.4655 C   0  0  0  0  0  0  0  0  0  0  0  0
   13.0571    2.2716   23.7017 C   0  0  0  0  0  0  0  0  0  0  0  0
   12.0470    2.9667   23.0396 C   0  0  0  0  0  0  0  0  0  0  0  0
   11.8974    4.7114   23.2629 S   0  0  0  0  0  0  0  0  0  0  0  0
   10.2627    4.9268   22.9570 N   0  0  0  0  0  0  0  0  0  0  0  0
   12.0955    5.0307   24.6565 O   0  0  0  0  0  0  0  0  0  0  0  0
   12.6000    5.3916   22.1999 O   0  0  0  0  0  0  0  0  0  0  0  0
   11.1552    2.3118   22.1804 C   0  0  0  0  0  0  0  0  0  0  0  0
  1  2  2  0
  2  3  1  0
  2  5  1  0
  3  4  1  0
  5  6  1  0
  6  7  2  0
  6 15  1  0
  7  8  1  0
  8  9  2  0
  9 10  1  0
 10 11  1  0
 10 15  2  0
 11 12  1  0
 11 13  2  0
 11 14  2  0
M  END
>  <CHROM.1>  (3) 
163.12124691,-153.63153773,10.96552110,2.49611357,22.30417641,2.27125397
0.47577043,-2.88457595

>  <Name>  (3) 
N=C(NO)Nc1cccc(S(N)(=O)=O)c1

>  <RI>  (3) 
0

>  <Rbt.Current_Directory>  (3) 
/home/gse84885/github/im/docking-validation/targets/mpro/expts/jackall/work/Mpro-x0072_0/work/08/06f24bc6fe1494d8a225ab1f208fe4

>  <Rbt.Executable>  (3) 
rbdock ($Id: //depot/dev/client3/rdock/2013.1/src/exe/rbdock.cxx#4 $)

>  <Rbt.Library>  (3) 
libRbt.so (2013.1, Build901 2013/11/27)

>  <Rbt.Parameter_File>  (3) 
/rDock_2013.1/data/scripts/dock.prm

>  <Rbt.Receptor>  (3) 
docking-global.prm

>  <SCORE>  (3) 
-7.45494

>  <SCORE.INTER>  (3) 
-7.56155

>  <SCORE.INTER.CONST>  (3) 
1

>  <SCORE.INTER.POLAR>  (3) 
0

>  <SCORE.INTER.REPUL>  (3) 
0.0457808

>  <SCORE.INTER.ROT>  (3) 
2

>  <SCORE.INTER.VDW>  (3) 
-15.1905

>  <SCORE.INTER.norm>  (3) 
-0.504104

>  <SCORE.INTRA>  (3) 
0.106612

>  <SCORE.INTRA.DIHEDRAL>  (3) 
0.140595

>  <SCORE.INTRA.DIHEDRAL.0>  (3) 
1.46472

>  <SCORE.INTRA.POLAR>  (3) 
0

>  <SCORE.INTRA.POLAR.0>  (3) 
0

>  <SCORE.INTRA.REPUL>  (3) 
0

>  <SCORE.INTRA.REPUL.0>  (3) 
0

>  <SCORE.INTRA.VDW>  (3) 
0.0363146

>  <SCORE.INTRA.VDW.0>  (3) 
-0.851437

>  <SCORE.INTRA.norm>  (3) 
0.00710746

>  <SCORE.RESTR>  (3) 
0

>  <SCORE.RESTR.CAVITY>  (3) 
0

>  <SCORE.RESTR.norm>  (3) 
0

>  <SCORE.SYSTEM>  (3) 
0

>  <SCORE.SYSTEM.CONST>  (3) 
0

>  <SCORE.SYSTEM.DIHEDRAL>  (3) 
0

>  <SCORE.SYSTEM.norm>  (3) 
0

>  <SCORE.heavy>  (3) 
15

>  <SCORE.norm>  (3) 
-0.496996

>  <XChemDeepScore>  (3) 
0.999370

>  <SuCOS_Max_Score>  (3) 
0.35672854608419058

>  <SuCOS_Max_FeatureMap_Score>  (3) 
0.25326126415646116

>  <SuCOS_Max_Protrude_Score>  (3) 
0.46019582801191994

>  <SuCOS_Max_Index>  (3) 
3

>  <SuCOS_Cum_Score>  (3) 
1.5590660529221971

>  <SuCOS_Cum_FeatureMap_Score>  (3) 
0.54283929704849254

>  <SuCOS_Cum_Protrude_Score>  (3) 
2.5752928087959015

$$$$
CC(OCc1ccccc1)C(N)C(=O)NO
     RDKit          3D

 16 16  0  0  0  0  0  0  0  0999 V2000
    9.6223   -2.1896   22.7321 C   0  0  0  0  0  0  0  0  0  0  0  0
    9.9001   -1.4806   21.4024 C   0  0  1  0  0  0  0  0  0  0  0  0
    8.6132   -1.0282   20.9276 O   0  0  0  0  0  0  0  0  0  0  0  0
    8.6465   -0.4198   19.6375 C   0  0  0  0  0  0  0  0  0  0  0  0
    7.2519    0.0027   19.2571 C   0  0  0  0  0  0  0  0  0  0  0  0
    6.5779   -0.6219   18.2003 C   0  0  0  0  0  0  0  0  0  0  0  0
    5.2785   -0.2402   17.8635 C   0  0  0  0  0  0  0  0  0  0  0  0
    4.6441    0.7736   18.5790 C   0  0  0  0  0  0  0  0  0  0  0  0
    5.3074    1.4070   19.6278 C   0  0  0  0  0  0  0  0  0  0  0  0
    6.6074    1.0268   19.9650 C   0  0  0  0  0  0  0  0  0  0  0  0
   10.8750   -0.2849   21.5345 C   0  0  1  0  0  0  0  0  0  0  0  0
   10.3537    0.7974   22.4189 N   0  0  0  0  0  0  0  0  0  0  0  0
   12.2944   -0.6806   21.9510 C   0  0  0  0  0  0  0  0  0  0  0  0
   12.7927   -1.7926   21.7979 O   0  0  0  0  0  0  0  0  0  0  0  0
   13.0075    0.3884   22.4501 N   0  0  0  0  0  0  0  0  0  0  0  0
   14.2906    0.0930   22.9623 O   0  0  0  0  0  0  0  0  0  0  0  0
  2  1  1  1
  2  3  1  0
  2 11  1  0
  3  4  1  0
  4  5  1  0
  5  6  2  0
  5 10  1  0
  6  7  1  0
  7  8  2  0
  8  9  1  0
  9 10  2  0
 11 12  1  1
 11 13  1  0
 13 14  2  0
 13 15  1  0
 15 16  1  0
M  END
>  <CHROM.1>  (4) 
-175.67831286,-61.92541154,179.85930546,-112.74192193,22.62665286,9.26073130
-0.30167124,20.78507321,0.06887208,0.48411636,-3.04782708

>  <Name>  (4) 
CC(OCc1ccccc1)C(N)C(=O)NO

>  <RI>  (4) 
0

>  <Rbt.Current_Directory>  (4) 
/home/gse84885/github/im/docking-validation/targets/mpro/expts/jackall/work/Mpro-x0072_0/work/a4/ff5fd3dec70634994f1ba7bb3ac026

>  <Rbt.Executable>  (4) 
rbdock ($Id: //depot/dev/client3/rdock/2013.1/src/exe/rbdock.cxx#4 $)

>  <Rbt.Library>  (4) 
libRbt.so (2013.1, Build901 2013/11/27)

>  <Rbt.Parameter_File>  (4) 
/rDock_2013.1/data/scripts/dock.prm

>  <Rbt.Receptor>  (4) 
docking-global.prm

>  <SCORE>  (4) 
-7.0366

>  <SCORE.INTER>  (4) 
-7.18523

>  <SCORE.INTER.CONST>  (4) 
1

>  <SCORE.INTER.POLAR>  (4) 
0

>  <SCORE.INTER.REPUL>  (4) 
0

>  <SCORE.INTER.ROT>  (4) 
5

>  <SCORE.INTER.VDW>  (4) 
-17.5852

>  <SCORE.INTER.norm>  (4) 
-0.449077

>  <SCORE.INTRA>  (4) 
0.148628

>  <SCORE.INTRA.DIHEDRAL>  (4) 
-0.140074

>  <SCORE.INTRA.DIHEDRAL.0>  (4) 
2.39934

>  <SCORE.INTRA.POLAR>  (4) 
0

>  <SCORE.INTRA.POLAR.0>  (4) 
0

>  <SCORE.INTRA.REPUL>  (4) 
0

>  <SCORE.INTRA.REPUL.0>  (4) 
0

>  <SCORE.INTRA.VDW>  (4) 
0.218666

>  <SCORE.INTRA.VDW.0>  (4) 
-0.514473

>  <SCORE.INTRA.norm>  (4) 
0.00928928

>  <SCORE.RESTR>  (4) 
0

>  <SCORE.RESTR.CAVITY>  (4) 
0

>  <SCORE.RESTR.norm>  (4) 
0

>  <SCORE.SYSTEM>  (4) 
0

>  <SCORE.SYSTEM.CONST>  (4) 
0

>  <SCORE.SYSTEM.DIHEDRAL>  (4) 
0

>  <SCORE.SYSTEM.norm>  (4) 
0

>  <SCORE.heavy>  (4) 
16

>  <SCORE.norm>  (4) 
-0.439787

>  <XChemDeepScore>  (4) 
0.998785

>  <SuCOS_Max_Score>  (4) 
0.42597467053530336

>  <SuCOS_Max_FeatureMap_Score>  (4) 
0.14289627135156402

>  <SuCOS_Max_Protrude_Score>  (4) 
0.70905306971904269

>  <SuCOS_Max_Index>  (4) 
5

>  <SuCOS_Cum_Score>  (4) 
1.6420576782478575

>  <SuCOS_Cum_FeatureMap_Score>  (4) 
0.34474886054461212

>  <SuCOS_Cum_Protrude_Score>  (4) 
2.9393664959511034

$$$$
COC(=O)c1ccc(C(=N)NO)cc1
     RDKit          3D

 14 14  0  0  0  0  0  0  0  0999 V2000
    5.8379   -0.6555   18.4447 C   0  0  0  0  0  0  0  0  0  0  0  0
    7.0579   -0.5272   19.1800 O   0  0  0  0  0  0  0  0  0  0  0  0
    7.1753    0.6472   19.8444 C   0  0  0  0  0  0  0  0  0  0  0  0
    6.3499    1.5448   19.8798 O   0  0  0  0  0  0  0  0  0  0  0  0
    8.4766    0.7202   20.5655 C   0  0  0  0  0  0  0  0  0  0  0  0
    8.7945    1.9091   21.2301 C   0  0  0  0  0  0  0  0  0  0  0  0
   10.0084    2.0420   21.9161 C   0  0  0  0  0  0  0  0  0  0  0  0
   10.9308    0.9814   21.9718 C   0  0  0  0  0  0  0  0  0  0  0  0
   12.2176    1.1256   22.7106 C   0  0  0  0  0  0  0  0  0  0  0  0
   12.4503    2.2746   23.3292 N   0  0  0  0  0  0  0  0  0  0  0  0
   13.0556    0.0935   22.7050 N   0  0  0  0  0  0  0  0  0  0  0  0
   14.2800    0.0876   23.3697 O   0  0  0  0  0  0  0  0  0  0  0  0
   10.5985   -0.2106   21.3023 C   0  0  0  0  0  0  0  0  0  0  0  0
    9.3892   -0.3383   20.6003 C   0  0  0  0  0  0  0  0  0  0  0  0
  1  2  1  0
  2  3  1  0
  3  4  2  0
  3  5  1  0
  5  6  2  0
  5 14  1  0
  6  7  1  0
  7  8  2  0
  8  9  1  0
  8 13  1  0
  9 10  2  0
  9 11  1  0
 11 12  1  0
 13 14  2  0
M  END
>  <CHROM.1>  (5) 
1.40248909,175.78635292,1.13346236,9.72481400,0.66443670,21.18692641,-2.85987229
-0.45174123,0.42647831

>  <Name>  (5) 
COC(=O)c1ccc(C(=N)NO)cc1

>  <RI>  (5) 
0

>  <Rbt.Current_Directory>  (5) 
/home/gse84885/github/im/docking-validation/targets/mpro/expts/jackall/work/Mpro-x0072_0/work/e1/4804c84b587564d1859947a5e1d97c

>  <Rbt.Executable>  (5) 
rbdock ($Id: //depot/dev/client3/rdock/2013.1/src/exe/rbdock.cxx#4 $)

>  <Rbt.Library>  (5) 
libRbt.so (2013.1, Build901 2013/11/27)

>  <Rbt.Parameter_File>  (5) 
/rDock_2013.1/data/scripts/dock.prm

>  <Rbt.Receptor>  (5) 
docking-global.prm

>  <SCORE>  (5) 
-7.24417

>  <SCORE.INTER>  (5) 
-5.54803

>  <SCORE.INTER.CONST>  (5) 
1

>  <SCORE.INTER.POLAR>  (5) 
0

>  <SCORE.INTER.REPUL>  (5) 
0

>  <SCORE.INTER.ROT>  (5) 
3

>  <SCORE.INTER.VDW>  (5) 
-13.948

>  <SCORE.INTER.norm>  (5) 
-0.396288

>  <SCORE.INTRA>  (5) 
-1.69614

>  <SCORE.INTRA.DIHEDRAL>  (5) 
-3.90743

>  <SCORE.INTRA.DIHEDRAL.0>  (5) 
3.992

>  <SCORE.INTRA.POLAR>  (5) 
0

>  <SCORE.INTRA.POLAR.0>  (5) 
0

>  <SCORE.INTRA.REPUL>  (5) 
0

>  <SCORE.INTRA.REPUL.0>  (5) 
0

>  <SCORE.INTRA.VDW>  (5) 
0.257577

>  <SCORE.INTRA.VDW.0>  (5) 
1.64362

>  <SCORE.INTRA.norm>  (5) 
-0.121153

>  <SCORE.RESTR>  (5) 
0

>  <SCORE.RESTR.CAVITY>  (5) 
0

>  <SCORE.RESTR.norm>  (5) 
0

>  <SCORE.SYSTEM>  (5) 
0

>  <SCORE.SYSTEM.CONST>  (5) 
0

>  <SCORE.SYSTEM.DIHEDRAL>  (5) 
0

>  <SCORE.SYSTEM.norm>  (5) 
0

>  <SCORE.heavy>  (5) 
14

>  <SCORE.norm>  (5) 
-0.51744

>  <XChemDeepScore>  (5) 
0.998702

>  <SuCOS_Max_Score>  (5) 
0.26598139768950846

>  <SuCOS_Max_FeatureMap_Score>  (5) 
0.0031888170637541578

>  <SuCOS_Max_Protrude_Score>  (5) 
0.52877397831526274

>  <SuCOS_Max_Index>  (5) 
5

>  <SuCOS_Cum_Score>  (5) 
1.2141590032933465

>  <SuCOS_Cum_FeatureMap_Score>  (5) 
0.089104688190143153

>  <SuCOS_Cum_Protrude_Score>  (5) 
2.33921331839655

$$$$
O=P(O)(O)c1cc2cc(F)ccc2[nH]1
     RDKit          3D

 14 15  0  0  0  0  0  0  0  0999 V2000
   13.5184    6.4738   22.4622 O   0  0  0  0  0  0  0  0  0  0  0  0
   13.0356    5.0027   22.4462 P   0  0  0  0  0  0  0  0  0  0  0  0
   11.5215    5.2670   22.6666 O   0  0  0  0  0  0  0  0  0  0  0  0
   13.5141    4.6288   21.0173 O   0  0  0  0  0  0  0  0  0  0  0  0
   12.4651    3.2640   22.4273 C   0  0  0  0  0  0  0  0  0  0  0  0
   12.7011    2.3589   23.4555 C   0  0  0  0  0  0  0  0  0  0  0  0
   12.1175    1.1689   23.0754 C   0  0  0  0  0  0  0  0  0  0  0  0
   12.0596   -0.0507   23.7457 C   0  0  0  0  0  0  0  0  0  0  0  0
   11.3992   -1.0787   23.0727 C   0  0  0  0  0  0  0  0  0  0  0  0
   11.3054   -2.2841   23.6547 F   0  0  0  0  0  0  0  0  0  0  0  0
   10.8298   -0.9000   21.8051 C   0  0  0  0  0  0  0  0  0  0  0  0
   10.8940    0.3360   21.1525 C   0  0  0  0  0  0  0  0  0  0  0  0
   11.5533    1.3894   21.8094 C   0  0  0  0  0  0  0  0  0  0  0  0
   11.7581    2.6527   21.4241 N   0  0  0  0  0  0  0  0  0  0  0  0
  1  2  2  0
  2  3  1  0
  2  4  1  0
  2  5  1  0
  5  6  2  0
  5 14  1  0
  6  7  1  0
  7  8  2  0
  7 13  1  0
  8  9  1  0
  9 10  1  0
  9 11  2  0
 11 12  1  0
 12 13  2  0
 13 14  1  0
M  END
>  <CHROM.1>  (6) 
-149.80458560,12.14634674,2.31172216,22.45393708,-0.95413008,1.12666128,2.46709645

>  <Name>  (6) 
O=P(O)(O)c1cc2cc(F)ccc2[nH]1

>  <RI>  (6) 
0

>  <Rbt.Current_Directory>  (6) 
/home/gse84885/github/im/docking-validation/targets/mpro/expts/jackall/work/Mpro-x0072_0/work/b3/e98c081b6d324a66034ce9e55b1076

>  <Rbt.Executable>  (6) 
rbdock ($Id: //depot/dev/client3/rdock/2013.1/src/exe/rbdock.cxx#4 $)

>  <Rbt.Library>  (6) 
libRbt.so (2013.1, Build901 2013/11/27)

>  <Rbt.Parameter_File>  (6) 
/rDock_2013.1/data/scripts/dock.prm

>  <Rbt.Receptor>  (6) 
docking-global.prm

>  <SCORE>  (6) 
nan

>  <SCORE.INTER>  (6) 
-7.66293

>  <SCORE.INTER.CONST>  (6) 
1

>  <SCORE.INTER.POLAR>  (6) 
0

>  <SCORE.INTER.REPUL>  (6) 
0.311971

>  <SCORE.INTER.ROT>  (6) 
1

>  <SCORE.INTER.VDW>  (6) 
-15.6228

>  <SCORE.INTER.norm>  (6) 
-0.547352

>  <SCORE.INTRA>  (6) 
nan

>  <SCORE.INTRA.DIHEDRAL>  (6) 
nan

>  <SCORE.INTRA.DIHEDRAL.0>  (6) 
nan

>  <SCORE.INTRA.POLAR>  (6) 
0

>  <SCORE.INTRA.POLAR.0>  (6) 
0

>  <SCORE.INTRA.REPUL>  (6) 
0

>  <SCORE.INTRA.REPUL.0>  (6) 
0

>  <SCORE.INTRA.VDW>  (6) 
-0.754209

>  <SCORE.INTRA.VDW.0>  (6) 
0.255179

>  <SCORE.INTRA.norm>  (6) 
nan

>  <SCORE.RESTR>  (6) 
0

>  <SCORE.RESTR.CAVITY>  (6) 
0

>  <SCORE.RESTR.norm>  (6) 
0

>  <SCORE.SYSTEM>  (6) 
0

>  <SCORE.SYSTEM.CONST>  (6) 
0

>  <SCORE.SYSTEM.DIHEDRAL>  (6) 
0

>  <SCORE.SYSTEM.norm>  (6) 
0

>  <SCORE.heavy>  (6) 
14

>  <SCORE.norm>  (6) 
nan

>  <XChemDeepScore>  (6) 
0.998557

>  <SuCOS_Max_Score>  (6) 
0.36783555231575382

>  <SuCOS_Max_FeatureMap_Score>  (6) 
0.22511646886991837

>  <SuCOS_Max_Protrude_Score>  (6) 
0.51055463576158933

>  <SuCOS_Max_Index>  (6) 
1

>  <SuCOS_Cum_Score>  (6) 
1.7489534817212959

>  <SuCOS_Cum_FeatureMap_Score>  (6) 
0.77704401565097092

>  <SuCOS_Cum_Protrude_Score>  (6) 
2.7208629477916211

$$$$
N#Cc1ccc(C(=O)NO)nc1
     RDKit          3D

 12 12  0  0  0  0  0  0  0  0999 V2000
   12.2999   -2.0360   21.8739 N   0  0  0  0  0  0  0  0  0  0  0  0
   12.2540   -0.9096   22.1364 C   0  0  0  0  0  0  0  0  0  0  0  0
   12.2222    0.4803   22.4700 C   0  0  0  0  0  0  0  0  0  0  0  0
   11.5890    1.4021   21.6319 C   0  0  0  0  0  0  0  0  0  0  0  0
   11.5999    2.7594   21.9542 C   0  0  0  0  0  0  0  0  0  0  0  0
   12.2477    3.1632   23.1163 C   0  0  0  0  0  0  0  0  0  0  0  0
   12.4005    4.5429   23.6042 C   0  0  0  0  0  0  0  0  0  0  0  0
   12.0628    5.4250   22.8177 O   0  0  0  0  0  0  0  0  0  0  0  0
   12.8767    4.7527   24.8694 N   0  0  0  0  0  0  0  0  0  0  0  0
   12.9684    6.0874   25.3089 O   0  0  0  0  0  0  0  0  0  0  0  0
   12.8329    2.2492   23.9161 N   0  0  0  0  0  0  0  0  0  0  0  0
   12.8415    0.9359   23.6334 C   0  0  0  0  0  0  0  0  0  0  0  0
  1  2  3  0
  2  3  1  0
  3  4  2  0
  3 12  1  0
  4  5  1  0
  5  6  2  0
  6  7  1  0
  6 11  1  0
  7  8  2  0
  7  9  1  0
  9 10  1  0
 11 12  2  0
M  END
>  <CHROM.1>  (7) 
-9.55171726,12.36337867,2.52926220,23.16138717,-1.70910925,-1.09533895,0.22377681

>  <Name>  (7) 
N#Cc1ccc(C(=O)NO)nc1

>  <RI>  (7) 
0

>  <Rbt.Current_Directory>  (7) 
/home/gse84885/github/im/docking-validation/targets/mpro/expts/jackall/work/Mpro-x0072_0/work/07/860164ef50c8e0bdcd35ef7a4faf92

>  <Rbt.Executable>  (7) 
rbdock ($Id: //depot/dev/client3/rdock/2013.1/src/exe/rbdock.cxx#4 $)

>  <Rbt.Library>  (7) 
libRbt.so (2013.1, Build901 2013/11/27)

>  <Rbt.Parameter_File>  (7) 
/rDock_2013.1/data/scripts/dock.prm

>  <Rbt.Receptor>  (7) 
docking-global.prm

>  <SCORE>  (7) 
-6.69141

>  <SCORE.INTER>  (7) 
-6.8137

>  <SCORE.INTER.CONST>  (7) 
1

>  <SCORE.INTER.POLAR>  (7) 
0

>  <SCORE.INTER.REPUL>  (7) 
0.00209255

>  <SCORE.INTER.ROT>  (7) 
1

>  <SCORE.INTER.VDW>  (7) 
-13.2242

>  <SCORE.INTER.norm>  (7) 
-0.567808

>  <SCORE.INTRA>  (7) 
0.122287

>  <SCORE.INTRA.DIHEDRAL>  (7) 
0.41509

>  <SCORE.INTRA.DIHEDRAL.0>  (7) 
0.00455392

>  <SCORE.INTRA.POLAR>  (7) 
0

>  <SCORE.INTRA.POLAR.0>  (7) 
0

>  <SCORE.INTRA.REPUL>  (7) 
0.00913265

>  <SCORE.INTRA.REPUL.0>  (7) 
0

>  <SCORE.INTRA.VDW>  (7) 
-0.130921

>  <SCORE.INTRA.VDW.0>  (7) 
0.017549

>  <SCORE.INTRA.norm>  (7) 
0.0101906

>  <SCORE.RESTR>  (7) 
0

>  <SCORE.RESTR.CAVITY>  (7) 
0

>  <SCORE.RESTR.norm>  (7) 
0

>  <SCORE.SYSTEM>  (7) 
0

>  <SCORE.SYSTEM.CONST>  (7) 
0

>  <SCORE.SYSTEM.DIHEDRAL>  (7) 
0

>  <SCORE.SYSTEM.norm>  (7) 
0

>  <SCORE.heavy>  (7) 
12

>  <SCORE.norm>  (7) 
-0.557618

>  <XChemDeepScore>  (7) 
0.998515

>  <SuCOS_Max_Score>  (7) 
0.31259388823999401

>  <SuCOS_Max_FeatureMap_Score>  (7) 
0.12159732014456992

>  <SuCOS_Max_Protrude_Score>  (7) 
0.5035904563354181

>  <SuCOS_Max_Index>  (7) 
2

>  <SuCOS_Cum_Score>  (7) 
1.4491663776464971

>  <SuCOS_Cum_FeatureMap_Score>  (7) 
0.39689971631654147

>  <SuCOS_Cum_Protrude_Score>  (7) 
2.5014330389764527

$$$$
NS(=O)(=O)c1ccccc1NO
     RDKit          3D

 12 12  0  0  0  0  0  0  0  0999 V2000
   12.1812   -2.4809   22.7159 N   0  0  0  0  0  0  0  0  0  0  0  0
   12.9524   -1.2146   21.9334 S   0  0  0  0  0  0  0  0  0  0  0  0
   14.0170   -0.7505   22.7914 O   0  0  0  0  0  0  0  0  0  0  0  0
   13.2228   -1.7058   20.5955 O   0  0  0  0  0  0  0  0  0  0  0  0
   11.7009    0.0395   21.8216 C   0  0  0  0  0  0  0  0  0  0  0  0
   10.4740   -0.3098   21.2358 C   0  0  0  0  0  0  0  0  0  0  0  0
    9.4844    0.6551   21.0561 C   0  0  0  0  0  0  0  0  0  0  0  0
    9.7145    1.9653   21.4630 C   0  0  0  0  0  0  0  0  0  0  0  0
   10.9382    2.3092   22.0392 C   0  0  0  0  0  0  0  0  0  0  0  0
   11.9694    1.3651   22.2029 C   0  0  0  0  0  0  0  0  0  0  0  0
   13.1728    1.7794   22.8143 N   0  0  0  0  0  0  0  0  0  0  0  0
   13.3156    3.1133   23.2084 O   0  0  0  0  0  0  0  0  0  0  0  0
  1  2  1  0
  2  3  2  0
  2  4  2  0
  2  5  1  0
  5  6  2  0
  5 10  1  0
  6  7  1  0
  7  8  2  0
  8  9  1  0
  9 10  2  0
 10 11  1  0
 11 12  1  0
M  END
>  <CHROM.1>  (8) 
-53.85369423,-177.19030586,12.12070233,0.21048160,22.00216582,1.08128024
0.37829635,-2.89648181

>  <Name>  (8) 
NS(=O)(=O)c1ccccc1NO

>  <RI>  (8) 
0

>  <Rbt.Current_Directory>  (8) 
/home/gse84885/github/im/docking-validation/targets/mpro/expts/jackall/work/Mpro-x0072_0/work/18/534683d0081d47aa344ff54281f0d2

>  <Rbt.Executable>  (8) 
rbdock ($Id: //depot/dev/client3/rdock/2013.1/src/exe/rbdock.cxx#4 $)

>  <Rbt.Library>  (8) 
libRbt.so (2013.1, Build901 2013/11/27)

>  <Rbt.Parameter_File>  (8) 
/rDock_2013.1/data/scripts/dock.prm

>  <Rbt.Receptor>  (8) 
docking-global.prm

>  <SCORE>  (8) 
-6.32264

>  <SCORE.INTER>  (8) 
-5.73404

>  <SCORE.INTER.CONST>  (8) 
1

>  <SCORE.INTER.POLAR>  (8) 
0

>  <SCORE.INTER.REPUL>  (8) 
0

>  <SCORE.INTER.ROT>  (8) 
2

>  <SCORE.INTER.VDW>  (8) 
-13.134

>  <SCORE.INTER.norm>  (8) 
-0.477836

>  <SCORE.INTRA>  (8) 
-0.588602

>  <SCORE.INTRA.DIHEDRAL>  (8) 
-1.45513

>  <SCORE.INTRA.DIHEDRAL.0>  (8) 
2.60315

>  <SCORE.INTRA.POLAR>  (8) 
0

>  <SCORE.INTRA.POLAR.0>  (8) 
0

>  <SCORE.INTRA.REPUL>  (8) 
0

>  <SCORE.INTRA.REPUL.0>  (8) 
0

>  <SCORE.INTRA.VDW>  (8) 
0.138963

>  <SCORE.INTRA.VDW.0>  (8) 
-0.626836

>  <SCORE.INTRA.norm>  (8) 
-0.0490502

>  <SCORE.RESTR>  (8) 
0

>  <SCORE.RESTR.CAVITY>  (8) 
0

>  <SCORE.RESTR.norm>  (8) 
0

>  <SCORE.SYSTEM>  (8) 
0

>  <SCORE.SYSTEM.CONST>  (8) 
0

>  <SCORE.SYSTEM.DIHEDRAL>  (8) 
0

>  <SCORE.SYSTEM.norm>  (8) 
0

>  <SCORE.heavy>  (8) 
12

>  <SCORE.norm>  (8) 
-0.526887

>  <XChemDeepScore>  (8) 
0.998431

>  <SuCOS_Max_Score>  (8) 
0.2446058965204834

>  <SuCOS_Max_FeatureMap_Score>  (8) 
0.051987379023793426

>  <SuCOS_Max_Protrude_Score>  (8) 
0.43722441401717338

>  <SuCOS_Max_Index>  (8) 
2

>  <SuCOS_Cum_Score>  (8) 
1.3881043288966439

>  <SuCOS_Cum_FeatureMap_Score>  (8) 
0.14826527879777535

>  <SuCOS_Cum_Protrude_Score>  (8) 
2.627943378995512

$$$$
NC(CC(=O)NO)Cc1ccccc1
     RDKit          3D

 14 14  0  0  0  0  0  0  0  0999 V2000
   11.4396   -0.0387   24.7792 N   0  0  0  0  0  0  0  0  0  0  0  0
   12.3048    1.0722   24.3375 C   0  0  1  0  0  0  0  0  0  0  0  0
   13.4737    0.4842   23.5320 C   0  0  0  0  0  0  0  0  0  0  0  0
   13.0165   -0.3738   22.3727 C   0  0  0  0  0  0  0  0  0  0  0  0
   11.8677   -0.3992   21.9386 O   0  0  0  0  0  0  0  0  0  0  0  0
   14.0243   -1.1127   21.8040 N   0  0  0  0  0  0  0  0  0  0  0  0
   13.6518   -1.9823   20.7569 O   0  0  0  0  0  0  0  0  0  0  0  0
   11.5031    2.0966   23.4943 C   0  0  0  0  0  0  0  0  0  0  0  0
   12.2908    3.3240   23.1007 C   0  0  0  0  0  0  0  0  0  0  0  0
   12.7530    4.2206   24.0741 C   0  0  0  0  0  0  0  0  0  0  0  0
   13.4714    5.3588   23.7020 C   0  0  0  0  0  0  0  0  0  0  0  0
   13.7272    5.6148   22.3558 C   0  0  0  0  0  0  0  0  0  0  0  0
   13.2665    4.7347   21.3809 C   0  0  0  0  0  0  0  0  0  0  0  0
   12.5536    3.5932   21.7508 C   0  0  0  0  0  0  0  0  0  0  0  0
  2  1  1  6
  2  3  1  0
  2  8  1  0
  3  4  1  0
  4  5  2  0
  4  6  1  0
  6  7  1  0
  8  9  1  0
  9 10  2  0
  9 14  1  0
 10 11  1  0
 11 12  2  0
 12 13  1  0
 13 14  2  0
M  END
>  <CHROM.1>  (9) 
55.35853714,175.14758146,13.83526410,-64.77378225,12.80614275,1.77492322
22.78011380,1.59964434,-1.07963156,-2.99169127

>  <Name>  (9) 
NC(CC(=O)NO)Cc1ccccc1

>  <RI>  (9) 
0

>  <Rbt.Current_Directory>  (9) 
/home/gse84885/github/im/docking-validation/targets/mpro/expts/jackall/work/Mpro-x0072_0/work/50/3bc72b7b4401154777d1f53294af42

>  <Rbt.Executable>  (9) 
rbdock ($Id: //depot/dev/client3/rdock/2013.1/src/exe/rbdock.cxx#4 $)

>  <Rbt.Library>  (9) 
libRbt.so (2013.1, Build901 2013/11/27)

>  <Rbt.Parameter_File>  (9) 
/rDock_2013.1/data/scripts/dock.prm

>  <Rbt.Receptor>  (9) 
docking-global.prm

>  <SCORE>  (9) 
-8.82821

>  <SCORE.INTER>  (9) 
-8.84153

>  <SCORE.INTER.CONST>  (9) 
1

>  <SCORE.INTER.POLAR>  (9) 
0

>  <SCORE.INTER.REPUL>  (9) 
0

>  <SCORE.INTER.ROT>  (9) 
4

>  <SCORE.INTER.VDW>  (9) 
-18.2415

>  <SCORE.INTER.norm>  (9) 
-0.631538

>  <SCORE.INTRA>  (9) 
0.013318

>  <SCORE.INTRA.DIHEDRAL>  (9) 
-0.405978

>  <SCORE.INTRA.DIHEDRAL.0>  (9) 
2.55207

>  <SCORE.INTRA.POLAR>  (9) 
0

>  <SCORE.INTRA.POLAR.0>  (9) 
0

>  <SCORE.INTRA.REPUL>  (9) 
0

>  <SCORE.INTRA.REPUL.0>  (9) 
0

>  <SCORE.INTRA.VDW>  (9) 
0.216307

>  <SCORE.INTRA.VDW.0>  (9) 
-0.968205

>  <SCORE.INTRA.norm>  (9) 
0.000951284

>  <SCORE.RESTR>  (9) 
0

>  <SCORE.RESTR.CAVITY>  (9) 
0

>  <SCORE.RESTR.norm>  (9) 
0

>  <SCORE.SYSTEM>  (9) 
0

>  <SCORE.SYSTEM.CONST>  (9) 
0

>  <SCORE.SYSTEM.DIHEDRAL>  (9) 
0

>  <SCORE.SYSTEM.norm>  (9) 
0

>  <SCORE.heavy>  (9) 
14

>  <SCORE.norm>  (9) 
-0.630586

>  <XChemDeepScore>  (9) 
0.998396

>  <SuCOS_Max_Score>  (9) 
0.41129407050430217

>  <SuCOS_Max_FeatureMap_Score>  (9) 
0.23680281154320845

>  <SuCOS_Max_Protrude_Score>  (9) 
0.58578532946539585

>  <SuCOS_Max_Index>  (9) 
1

>  <SuCOS_Cum_Score>  (9) 
1.8068394088471156

>  <SuCOS_Cum_FeatureMap_Score>  (9) 
0.54131488220091739

>  <SuCOS_Cum_Protrude_Score>  (9) 
3.0723639354933137

$$$$
CN1CCCc2cc(C(=N)NO)ccc21
     RDKit          3D

 15 16  0  0  0  0  0  0  0  0999 V2000
   12.1966    2.5490   22.6385 C   0  0  0  0  0  0  0  0  0  0  0  0
   11.9270    1.1764   22.2197 N   0  0  0  0  0  0  0  0  0  0  0  0
   12.7583    0.1362   22.8304 C   0  0  0  0  0  0  0  0  0  0  0  0
   12.6971   -1.1447   22.0198 C   0  0  0  0  0  0  0  0  0  0  0  0
   11.2614   -1.6393   21.9607 C   0  0  0  0  0  0  0  0  0  0  0  0
   10.3094   -0.5385   21.5645 C   0  0  0  0  0  0  0  0  0  0  0  0
    9.0450   -0.8978   21.0408 C   0  0  0  0  0  0  0  0  0  0  0  0
    8.1174    0.0791   20.6853 C   0  0  0  0  0  0  0  0  0  0  0  0
    6.8096   -0.2873   20.0512 C   0  0  0  0  0  0  0  0  0  0  0  0
    6.4308   -1.5261   19.9084 N   0  0  0  0  0  0  0  0  0  0  0  0
    5.9512    0.7105   19.6286 N   0  0  0  0  0  0  0  0  0  0  0  0
    4.6093    0.2876   19.6558 O   0  0  0  0  0  0  0  0  0  0  0  0
    8.4450    1.4224   20.8734 C   0  0  0  0  0  0  0  0  0  0  0  0
    9.6978    1.7755   21.4002 C   0  0  0  0  0  0  0  0  0  0  0  0
   10.6569    0.8176   21.7571 C   0  0  0  0  0  0  0  0  0  0  0  0
  1  2  1  0
  2  3  1  0
  2 15  1  0
  3  4  1  0
  4  5  1  0
  5  6  1  0
  6  7  1  0
  6 15  2  0
  7  8  2  0
  8  9  1  0
  8 13  1  0
  9 10  2  0
  9 11  1  0
 11 12  1  0
 13 14  2  0
 14 15  1  0
M  END
>  <CHROM.1>  (10) 
5.99202936,9.38359614,0.20587798,21.21735743,0.10266345,-0.37245035,0.09006407

>  <Name>  (10) 
CN1CCCc2cc(C(=N)NO)ccc21

>  <RI>  (10) 
0

>  <Rbt.Current_Directory>  (10) 
/home/gse84885/github/im/docking-validation/targets/mpro/expts/jackall/work/Mpro-x0072_0/work/5f/020b32ef2d2c7ee4514735cb0f44fe

>  <Rbt.Executable>  (10) 
rbdock ($Id: //depot/dev/client3/rdock/2013.1/src/exe/rbdock.cxx#4 $)

>  <Rbt.Library>  (10) 
libRbt.so (2013.1, Build901 2013/11/27)

>  <Rbt.Parameter_File>  (10) 
/rDock_2013.1/data/scripts/dock.prm

>  <Rbt.Receptor>  (10) 
docking-global.prm

>  <SCORE>  (10) 
-10.2088

>  <SCORE.INTER>  (10) 
-8.86373

>  <SCORE.INTER.CONST>  (10) 
1

>  <SCORE.INTER.POLAR>  (10) 
0

>  <SCORE.INTER.REPUL>  (10) 
0.0228927

>  <SCORE.INTER.ROT>  (10) 
1

>  <SCORE.INTER.VDW>  (10) 
-15.3782

>  <SCORE.INTER.norm>  (10) 
-0.590915

>  <SCORE.INTRA>  (10) 
-1.3451

>  <SCORE.INTRA.DIHEDRAL>  (10) 
-3.00917

>  <SCORE.INTRA.DIHEDRAL.0>  (10) 
3.07446

>  <SCORE.INTRA.POLAR>  (10) 
0

>  <SCORE.INTRA.POLAR.0>  (10) 
0

>  <SCORE.INTRA.REPUL>  (10) 
0

>  <SCORE.INTRA.REPUL.0>  (10) 
0

>  <SCORE.INTRA.VDW>  (10) 
0.159483

>  <SCORE.INTRA.VDW.0>  (10) 
-0.289769

>  <SCORE.INTRA.norm>  (10) 
-0.0896733

>  <SCORE.RESTR>  (10) 
0

>  <SCORE.RESTR.CAVITY>  (10) 
0

>  <SCORE.RESTR.norm>  (10) 
0

>  <SCORE.SYSTEM>  (10) 
0

>  <SCORE.SYSTEM.CONST>  (10) 
0

>  <SCORE.SYSTEM.DIHEDRAL>  (10) 
0

>  <SCORE.SYSTEM.norm>  (10) 
0

>  <SCORE.heavy>  (10) 
15

>  <SCORE.norm>  (10) 
-0.680589

>  <XChemDeepScore>  (10) 
0.997869

>  <SuCOS_Max_Score>  (10) 
0.31153892484235846

>  <SuCOS_Max_FeatureMap_Score>  (10) 
0.011019637626504795

>  <SuCOS_Max_Protrude_Score>  (10) 
0.61205821205821209

>  <SuCOS_Max_Index>  (10) 
5

>  <SuCOS_Cum_Score>  (10) 
1.4335825191811298

>  <SuCOS_Cum_FeatureMap_Score>  (10) 
0.036020248357879307

>  <SuCOS_Cum_Protrude_Score>  (10) 
2.8311447900043802

$$$$
C[C@H](Cc1ccccc1)C(=O)NO
     RDKit          3D

 13 13  0  0  0  0  0  0  0  0999 V2000
   10.2021    0.1422   22.1394 C   0  0  0  0  0  0  0  0  0  0  0  0
   11.0770    1.2660   22.7010 C   0  0  2  0  0  0  0  0  0  0  0  0
   11.4843    2.2927   21.6284 C   0  0  0  0  0  0  0  0  0  0  0  0
   12.2805    3.4687   22.1542 C   0  0  0  0  0  0  0  0  0  0  0  0
   12.3423    3.7485   23.5262 C   0  0  0  0  0  0  0  0  0  0  0  0
   13.0462    4.8615   23.9894 C   0  0  0  0  0  0  0  0  0  0  0  0
   13.7059    5.6972   23.0895 C   0  0  0  0  0  0  0  0  0  0  0  0
   13.6725    5.4139   21.7258 C   0  0  0  0  0  0  0  0  0  0  0  0
   12.9651    4.3049   21.2611 C   0  0  0  0  0  0  0  0  0  0  0  0
   12.3347    0.6545   23.3260 C   0  0  0  0  0  0  0  0  0  0  0  0
   12.5694    0.7720   24.5274 O   0  0  0  0  0  0  0  0  0  0  0  0
   13.1133    0.0175   22.3648 N   0  0  0  0  0  0  0  0  0  0  0  0
   14.3333   -0.5236   22.7160 O   0  0  0  0  0  0  0  0  0  0  0  0
  2 10  1  0
  2  3  1  0
  2  1  1  6
  3  4  1  0
  4  5  2  0
  4  9  1  0
  5  6  1  0
  6  7  2  0
  7  8  1  0
  8  9  2  0
 10 11  2  0
 10 12  1  0
 12 13  1  0
M  END
>  <CHROM.1>  (11) 
-117.13923958,176.45208146,-14.85711962,12.55172880,2.35499294,22.71982072
1.77895655,0.44457039,3.00213851

>  <Name>  (11) 
C[C@H](Cc1ccccc1)C(=O)NO

>  <RI>  (11) 
0

>  <Rbt.Current_Directory>  (11) 
/home/gse84885/github/im/docking-validation/targets/mpro/expts/jackall/work/Mpro-x0072_0/work/d9/0a0d942dd99ebd5b0411faf6dd7b95

>  <Rbt.Executable>  (11) 
rbdock ($Id: //depot/dev/client3/rdock/2013.1/src/exe/rbdock.cxx#4 $)

>  <Rbt.Library>  (11) 
libRbt.so (2013.1, Build901 2013/11/27)

>  <Rbt.Parameter_File>  (11) 
/rDock_2013.1/data/scripts/dock.prm

>  <Rbt.Receptor>  (11) 
docking-global.prm

>  <SCORE>  (11) 
-7.99125

>  <SCORE.INTER>  (11) 
-7.33884

>  <SCORE.INTER.CONST>  (11) 
1

>  <SCORE.INTER.POLAR>  (11) 
0

>  <SCORE.INTER.REPUL>  (11) 
0.0172121

>  <SCORE.INTER.ROT>  (11) 
3

>  <SCORE.INTER.VDW>  (11) 
-15.8249

>  <SCORE.INTER.norm>  (11) 
-0.564526

>  <SCORE.INTRA>  (11) 
-0.652415

>  <SCORE.INTRA.DIHEDRAL>  (11) 
-0.885197

>  <SCORE.INTRA.DIHEDRAL.0>  (11) 
2.22798

>  <SCORE.INTRA.POLAR>  (11) 
0

>  <SCORE.INTRA.POLAR.0>  (11) 
0

>  <SCORE.INTRA.REPUL>  (11) 
0

>  <SCORE.INTRA.REPUL.0>  (11) 
0

>  <SCORE.INTRA.VDW>  (11) 
-0.209816

>  <SCORE.INTRA.VDW.0>  (11) 
0.104829

>  <SCORE.INTRA.norm>  (11) 
-0.0501858

>  <SCORE.RESTR>  (11) 
0

>  <SCORE.RESTR.CAVITY>  (11) 
0

>  <SCORE.RESTR.norm>  (11) 
0

>  <SCORE.SYSTEM>  (11) 
0

>  <SCORE.SYSTEM.CONST>  (11) 
0

>  <SCORE.SYSTEM.DIHEDRAL>  (11) 
0

>  <SCORE.SYSTEM.norm>  (11) 
0

>  <SCORE.heavy>  (11) 
13

>  <SCORE.norm>  (11) 
-0.614712

>  <XChemDeepScore>  (11) 
0.997612

>  <SuCOS_Max_Score>  (11) 
0.26708404985771877

>  <SuCOS_Max_FeatureMap_Score>  (11) 
0.058046536763194344

>  <SuCOS_Max_Protrude_Score>  (11) 
0.47612156295224317

>  <SuCOS_Max_Index>  (11) 
1

>  <SuCOS_Cum_Score>  (11) 
1.4083962610460874

>  <SuCOS_Cum_FeatureMap_Score>  (11) 
0.29430061720001932

>  <SuCOS_Cum_Protrude_Score>  (11) 
2.5224919048921555

$$$$
CC(Cc1ccccc1)C(=O)NO
     RDKit          3D

 13 13  0  0  0  0  0  0  0  0999 V2000
   13.5906    4.2255   22.5013 C   0  0  0  0  0  0  0  0  0  0  0  0
   12.2928    3.7943   23.1959 C   0  0  1  0  0  0  0  0  0  0  0  0
   12.4960    2.5058   24.0197 C   0  0  0  0  0  0  0  0  0  0  0  0
   12.5781    1.2397   23.1912 C   0  0  0  0  0  0  0  0  0  0  0  0
   11.4898    0.8390   22.4059 C   0  0  0  0  0  0  0  0  0  0  0  0
   11.5530   -0.3361   21.6544 C   0  0  0  0  0  0  0  0  0  0  0  0
   12.7091   -1.1150   21.6718 C   0  0  0  0  0  0  0  0  0  0  0  0
   13.8031   -0.7171   22.4359 C   0  0  0  0  0  0  0  0  0  0  0  0
   13.7443    0.4600   23.1858 C   0  0  0  0  0  0  0  0  0  0  0  0
   11.7715    4.9248   24.0959 C   0  0  0  0  0  0  0  0  0  0  0  0
   10.7320    5.5235   23.8256 O   0  0  0  0  0  0  0  0  0  0  0  0
   12.6008    5.1288   25.1942 N   0  0  0  0  0  0  0  0  0  0  0  0
   12.2734    6.0810   26.1380 O   0  0  0  0  0  0  0  0  0  0  0  0
  2  1  1  1
  2  3  1  0
  2 10  1  0
  3  4  1  0
  4  5  2  0
  4  9  1  0
  5  6  1  0
  6  7  2  0
  7  8  1  0
  8  9  2  0
 10 11  2  0
 10 12  1  0
 12 13  1  0
M  END
>  <CHROM.1>  (12) 
-75.70572205,111.95462811,-61.88065593,12.41949538,2.64277796,23.40346349
-1.69707669,0.48740167,-2.66189525

>  <Name>  (12) 
CC(Cc1ccccc1)C(=O)NO

>  <RI>  (12) 
0

>  <Rbt.Current_Directory>  (12) 
/home/gse84885/github/im/docking-validation/targets/mpro/expts/jackall/work/Mpro-x0072_0/work/d9/0a0d942dd99ebd5b0411faf6dd7b95

>  <Rbt.Executable>  (12) 
rbdock ($Id: //depot/dev/client3/rdock/2013.1/src/exe/rbdock.cxx#4 $)

>  <Rbt.Library>  (12) 
libRbt.so (2013.1, Build901 2013/11/27)

>  <Rbt.Parameter_File>  (12) 
/rDock_2013.1/data/scripts/dock.prm

>  <Rbt.Receptor>  (12) 
docking-global.prm

>  <SCORE>  (12) 
-8.49589

>  <SCORE.INTER>  (12) 
-7.60621

>  <SCORE.INTER.CONST>  (12) 
1

>  <SCORE.INTER.POLAR>  (12) 
0

>  <SCORE.INTER.REPUL>  (12) 
0.0298361

>  <SCORE.INTER.ROT>  (12) 
3

>  <SCORE.INTER.VDW>  (12) 
-16.1554

>  <SCORE.INTER.norm>  (12) 
-0.585093

>  <SCORE.INTRA>  (12) 
-0.889672

>  <SCORE.INTRA.DIHEDRAL>  (12) 
0.913652

>  <SCORE.INTRA.DIHEDRAL.0>  (12) 
1.3055

>  <SCORE.INTRA.POLAR>  (12) 
0

>  <SCORE.INTRA.POLAR.0>  (12) 
0

>  <SCORE.INTRA.REPUL>  (12) 
0

>  <SCORE.INTRA.REPUL.0>  (12) 
0

>  <SCORE.INTRA.VDW>  (12) 
-1.3465

>  <SCORE.INTRA.VDW.0>  (12) 
0.871988

>  <SCORE.INTRA.norm>  (12) 
-0.0684363

>  <SCORE.RESTR>  (12) 
0

>  <SCORE.RESTR.CAVITY>  (12) 
0

>  <SCORE.RESTR.norm>  (12) 
0

>  <SCORE.SYSTEM>  (12) 
0

>  <SCORE.SYSTEM.CONST>  (12) 
0

>  <SCORE.SYSTEM.DIHEDRAL>  (12) 
0

>  <SCORE.SYSTEM.norm>  (12) 
0

>  <SCORE.heavy>  (12) 
13

>  <SCORE.norm>  (12) 
-0.65353

>  <XChemDeepScore>  (12) 
0.997572

>  <SuCOS_Max_Score>  (12) 
0.45923513030494012

>  <SuCOS_Max_FeatureMap_Score>  (12) 
0.33696880893007936

>  <SuCOS_Max_Protrude_Score>  (12) 
0.58150145167980094

>  <SuCOS_Max_Index>  (12) 
1

>  <SuCOS_Cum_Score>  (12) 
1.8930441392056478

>  <SuCOS_Cum_FeatureMap_Score>  (12) 
0.93599985864919788

>  <SuCOS_Cum_Protrude_Score>  (12) 
2.8500884197620975

$$$$
C[C@@H](Cc1ccccc1)C(=O)NO
     RDKit          3D

 13 13  0  0  0  0  0  0  0  0999 V2000
   13.5586    4.1693   22.4995 C   0  0  0  0  0  0  0  0  0  0  0  0
   12.2499    3.7553   23.1794 C   0  0  1  0  0  0  0  0  0  0  0  0
   12.4318    2.4696   24.0153 C   0  0  0  0  0  0  0  0  0  0  0  0
   12.5336    1.1942   23.2022 C   0  0  0  0  0  0  0  0  0  0  0  0
   13.7315    0.4646   23.1728 C   0  0  0  0  0  0  0  0  0  0  0  0
   13.8371   -0.6974   22.4089 C   0  0  0  0  0  0  0  0  0  0  0  0
   12.7462   -1.1476   21.6690 C   0  0  0  0  0  0  0  0  0  0  0  0
   11.5450   -0.4415   21.7023 C   0  0  0  0  0  0  0  0  0  0  0  0
   11.4364    0.7190   22.4715 C   0  0  0  0  0  0  0  0  0  0  0  0
   11.7195    4.8870   24.0737 C   0  0  0  0  0  0  0  0  0  0  0  0
   10.7014    5.5106   23.7747 O   0  0  0  0  0  0  0  0  0  0  0  0
   12.5480    5.1040   25.1720 N   0  0  0  0  0  0  0  0  0  0  0  0
   12.1732    6.0062   26.1479 O   0  0  0  0  0  0  0  0  0  0  0  0
  2  1  1  1
  2  3  1  0
  2 10  1  0
  3  4  1  0
  4  5  2  0
  4  9  1  0
  5  6  1  0
  6  7  2  0
  7  8  1  0
  8  9  2  0
 10 11  2  0
 10 12  1  0
 12 13  1  0
M  END
>  <CHROM.1>  (13) 
-74.89452496,110.38929688,113.35934258,12.38580271,2.59958900,23.40072563
-1.70589535,0.44677679,-2.66636484

>  <Name>  (13) 
C[C@@H](Cc1ccccc1)C(=O)NO

>  <RI>  (13) 
0

>  <Rbt.Current_Directory>  (13) 
/home/gse84885/github/im/docking-validation/targets/mpro/expts/jackall/work/Mpro-x0072_0/work/d9/0a0d942dd99ebd5b0411faf6dd7b95

>  <Rbt.Executable>  (13) 
rbdock ($Id: //depot/dev/client3/rdock/2013.1/src/exe/rbdock.cxx#4 $)

>  <Rbt.Library>  (13) 
libRbt.so (2013.1, Build901 2013/11/27)

>  <Rbt.Parameter_File>  (13) 
/rDock_2013.1/data/scripts/dock.prm

>  <Rbt.Receptor>  (13) 
docking-global.prm

>  <SCORE>  (13) 
-8.03467

>  <SCORE.INTER>  (13) 
-7.45811

>  <SCORE.INTER.CONST>  (13) 
1

>  <SCORE.INTER.POLAR>  (13) 
0

>  <SCORE.INTER.REPUL>  (13) 
0.0369098

>  <SCORE.INTER.ROT>  (13) 
3

>  <SCORE.INTER.VDW>  (13) 
-16.0427

>  <SCORE.INTER.norm>  (13) 
-0.5737

>  <SCORE.INTRA>  (13) 
-0.576565

>  <SCORE.INTRA.DIHEDRAL>  (13) 
0.843451

>  <SCORE.INTRA.DIHEDRAL.0>  (13) 
1.30846

>  <SCORE.INTRA.POLAR>  (13) 
0

>  <SCORE.INTRA.POLAR.0>  (13) 
0

>  <SCORE.INTRA.REPUL>  (13) 
0

>  <SCORE.INTRA.REPUL.0>  (13) 
0

>  <SCORE.INTRA.VDW>  (13) 
-0.998291

>  <SCORE.INTRA.VDW.0>  (13) 
0.493452

>  <SCORE.INTRA.norm>  (13) 
-0.0443512

>  <SCORE.RESTR>  (13) 
0

>  <SCORE.RESTR.CAVITY>  (13) 
0

>  <SCORE.RESTR.norm>  (13) 
0

>  <SCORE.SYSTEM>  (13) 
0

>  <SCORE.SYSTEM.CONST>  (13) 
0

>  <SCORE.SYSTEM.DIHEDRAL>  (13) 
0

>  <SCORE.SYSTEM.norm>  (13) 
0

>  <SCORE.heavy>  (13) 
13

>  <SCORE.norm>  (13) 
-0.618052

>  <XChemDeepScore>  (13) 
0.997458

>  <SuCOS_Max_Score>  (13) 
0.46678437175993126

>  <SuCOS_Max_FeatureMap_Score>  (13) 
0.346882721122517

>  <SuCOS_Max_Protrude_Score>  (13) 
0.58668602239734557

>  <SuCOS_Max_Index>  (13) 
1

>  <SuCOS_Cum_Score>  (13) 
1.9382086318503515

>  <SuCOS_Cum_FeatureMap_Score>  (13) 
0.97696616074317677

>  <SuCOS_Cum_Protrude_Score>  (13) 
2.8994511029575261

$$$$
O=C(CNS(=O)(=O)c1ccccc1)NO
     RDKit          3D

 15 15  0  0  0  0  0  0  0  0999 V2000
   11.2556   -2.2839   22.2619 O   0  0  0  0  0  0  0  0  0  0  0  0
   11.8733   -1.2790   21.9086 C   0  0  0  0  0  0  0  0  0  0  0  0
   11.1184    0.0214   21.6481 C   0  0  0  0  0  0  0  0  0  0  0  0
   11.9252    1.2282   21.9157 N   0  0  0  0  0  0  0  0  0  0  0  0
   11.7452    1.9904   23.3821 S   0  0  0  0  0  0  0  0  0  0  0  0
   10.3310    2.2154   23.5823 O   0  0  0  0  0  0  0  0  0  0  0  0
   12.5418    1.2960   24.3718 O   0  0  0  0  0  0  0  0  0  0  0  0
   12.4782    3.5832   23.0922 C   0  0  0  0  0  0  0  0  0  0  0  0
   12.8533    3.9321   21.7902 C   0  0  0  0  0  0  0  0  0  0  0  0
   13.3862    5.1967   21.5444 C   0  0  0  0  0  0  0  0  0  0  0  0
   13.5343    6.1084   22.5918 C   0  0  0  0  0  0  0  0  0  0  0  0
   13.1548    5.7579   23.8881 C   0  0  0  0  0  0  0  0  0  0  0  0
   12.6242    4.4919   24.1428 C   0  0  0  0  0  0  0  0  0  0  0  0
   13.2447   -1.1444   21.7043 N   0  0  0  0  0  0  0  0  0  0  0  0
   14.0890   -2.1809   22.0499 O   0  0  0  0  0  0  0  0  0  0  0  0
  1  2  2  0
  2  3  1  0
  2 14  1  0
  3  4  1  0
  4  5  1  0
  5  6  2  0
  5  7  2  0
  5  8  1  0
  8  9  2  0
  8 13  1  0
  9 10  1  0
 10 11  2  0
 11 12  1  0
 12 13  2  0
 14 15  1  0
M  END
>  <CHROM.1>  (14) 
150.36961875,-97.50948544,-51.32264977,8.13787111,12.33377845,1.80233321
22.72989121,1.68226698,-0.59937017,-2.93792260

>  <Name>  (14) 
O=C(CNS(=O)(=O)c1ccccc1)NO

>  <RI>  (14) 
0

>  <Rbt.Current_Directory>  (14) 
/home/gse84885/github/im/docking-validation/targets/mpro/expts/jackall/work/Mpro-x0072_0/work/59/df6cc31aa08e6f9ea95284ce955684

>  <Rbt.Executable>  (14) 
rbdock ($Id: //depot/dev/client3/rdock/2013.1/src/exe/rbdock.cxx#4 $)

>  <Rbt.Library>  (14) 
libRbt.so (2013.1, Build901 2013/11/27)

>  <Rbt.Parameter_File>  (14) 
/rDock_2013.1/data/scripts/dock.prm

>  <Rbt.Receptor>  (14) 
docking-global.prm

>  <SCORE>  (14) 
-10.2719

>  <SCORE.INTER>  (14) 
-8.78399

>  <SCORE.INTER.CONST>  (14) 
1

>  <SCORE.INTER.POLAR>  (14) 
0

>  <SCORE.INTER.REPUL>  (14) 
0

>  <SCORE.INTER.ROT>  (14) 
4

>  <SCORE.INTER.VDW>  (14) 
-18.184

>  <SCORE.INTER.norm>  (14) 
-0.585599

>  <SCORE.INTRA>  (14) 
-1.48788

>  <SCORE.INTRA.DIHEDRAL>  (14) 
-1.96231

>  <SCORE.INTRA.DIHEDRAL.0>  (14) 
5.4177

>  <SCORE.INTRA.POLAR>  (14) 
0

>  <SCORE.INTRA.POLAR.0>  (14) 
0

>  <SCORE.INTRA.REPUL>  (14) 
-0.0399997

>  <SCORE.INTRA.REPUL.0>  (14) 
0.0399997

>  <SCORE.INTRA.VDW>  (14) 
-0.306732

>  <SCORE.INTRA.VDW.0>  (14) 
-1.05406

>  <SCORE.INTRA.norm>  (14) 
-0.0991923

>  <SCORE.RESTR>  (14) 
0

>  <SCORE.RESTR.CAVITY>  (14) 
0

>  <SCORE.RESTR.norm>  (14) 
0

>  <SCORE.SYSTEM>  (14) 
0

>  <SCORE.SYSTEM.CONST>  (14) 
0

>  <SCORE.SYSTEM.DIHEDRAL>  (14) 
0

>  <SCORE.SYSTEM.norm>  (14) 
0

>  <SCORE.heavy>  (14) 
15

>  <SCORE.norm>  (14) 
-0.684792

>  <XChemDeepScore>  (14) 
0.996643

>  <SuCOS_Max_Score>  (14) 
0.35908908418974889

>  <SuCOS_Max_FeatureMap_Score>  (14) 
0.12838140355162553

>  <SuCOS_Max_Protrude_Score>  (14) 
0.58979676482787224

>  <SuCOS_Max_Index>  (14) 
1

>  <SuCOS_Cum_Score>  (14) 
1.6094167133754209

>  <SuCOS_Cum_FeatureMap_Score>  (14) 
0.28667875563048778

>  <SuCOS_Cum_Protrude_Score>  (14) 
2.9321546711203537

$$$$
N=C(N)NC(=N)NCc1ccc(S(N)(=O)=O)cc1
     RDKit          3D

 18 18  0  0  0  0  0  0  0  0999 V2000
    9.6341   -2.7386   22.4012 N   0  0  0  0  0  0  0  0  0  0  0  0
   10.6951   -2.6024   23.1004 C   0  0  0  0  0  0  0  0  0  0  0  0
   11.7661   -1.8173   22.8772 N   0  0  0  0  0  0  0  0  0  0  0  0
   11.9083   -0.9190   21.7496 C   0  0  0  0  0  0  0  0  0  0  0  0
   12.0241    0.5031   22.2443 C   0  0  0  0  0  0  0  0  0  0  0  0
   11.3233    1.5359   21.5988 C   0  0  0  0  0  0  0  0  0  0  0  0
   11.4242    2.8525   22.0525 C   0  0  0  0  0  0  0  0  0  0  0  0
   12.2267    3.1435   23.1574 C   0  0  0  0  0  0  0  0  0  0  0  0
   12.3676    4.8204   23.7138 S   0  0  0  0  0  0  0  0  0  0  0  0
   10.8238    5.4107   23.4324 N   0  0  0  0  0  0  0  0  0  0  0  0
   12.5525    4.8223   25.1453 O   0  0  0  0  0  0  0  0  0  0  0  0
   13.2468    5.5320   22.8151 O   0  0  0  0  0  0  0  0  0  0  0  0
   12.9552    2.1349   23.7930 C   0  0  0  0  0  0  0  0  0  0  0  0
   12.8525    0.8179   23.3343 C   0  0  0  0  0  0  0  0  0  0  0  0
   10.7885   -3.3365   24.2891 N   0  0  0  0  0  0  0  0  0  0  0  0
    9.9027   -4.2116   24.7845 C   0  0  0  0  0  0  0  0  0  0  0  0
   10.1354   -4.7901   25.9708 N   0  0  0  0  0  0  0  0  0  0  0  0
    8.7896   -4.5282   24.1305 N   0  0  0  0  0  0  0  0  0  0  0  0
  1  2  2  0
  2  3  1  0
  2 15  1  0
  3  4  1  0
  4  5  1  0
  5  6  2  0
  5 14  1  0
  6  7  1  0
  7  8  2  0
  8  9  1  0
  8 13  1  0
  9 10  1  0
  9 11  2  0
  9 12  2  0
 13 14  2  0
 15 16  1  0
 16 17  1  0
 16 18  2  0
M  END
>  <CHROM.1>  (15) 
118.05783749,-136.99253012,35.87535046,11.49558619,0.76098941,23.41073703
-2.86277524,1.30197422,1.21387277

>  <Name>  (15) 
N=C(N)NC(=N)NCc1ccc(S(N)(=O)=O)cc1

>  <RI>  (15) 
0

>  <Rbt.Current_Directory>  (15) 
/home/gse84885/github/im/docking-validation/targets/mpro/expts/jackall/work/Mpro-x0072_0/work/aa/2064aa8afc11034667ac413ec73519

>  <Rbt.Executable>  (15) 
rbdock ($Id: //depot/dev/client3/rdock/2013.1/src/exe/rbdock.cxx#4 $)

>  <Rbt.Library>  (15) 
libRbt.so (2013.1, Build901 2013/11/27)

>  <Rbt.Parameter_File>  (15) 
/rDock_2013.1/data/scripts/dock.prm

>  <Rbt.Receptor>  (15) 
docking-global.prm

>  <SCORE>  (15) 
-11.9623

>  <SCORE.INTER>  (15) 
-10.7273

>  <SCORE.INTER.CONST>  (15) 
1

>  <SCORE.INTER.POLAR>  (15) 
0

>  <SCORE.INTER.REPUL>  (15) 
0.0146112

>  <SCORE.INTER.ROT>  (15) 
3

>  <SCORE.INTER.VDW>  (15) 
-19.2003

>  <SCORE.INTER.norm>  (15) 
-0.59596

>  <SCORE.INTRA>  (15) 
-1.23499

>  <SCORE.INTRA.DIHEDRAL>  (15) 
-2.51043

>  <SCORE.INTRA.DIHEDRAL.0>  (15) 
4.38687

>  <SCORE.INTRA.POLAR>  (15) 
0

>  <SCORE.INTRA.POLAR.0>  (15) 
0

>  <SCORE.INTRA.REPUL>  (15) 
0

>  <SCORE.INTRA.REPUL.0>  (15) 
0

>  <SCORE.INTRA.VDW>  (15) 
0.0202247

>  <SCORE.INTRA.VDW.0>  (15) 
-0.964007

>  <SCORE.INTRA.norm>  (15) 
-0.0686106

>  <SCORE.RESTR>  (15) 
0

>  <SCORE.RESTR.CAVITY>  (15) 
0

>  <SCORE.RESTR.norm>  (15) 
0

>  <SCORE.SYSTEM>  (15) 
0

>  <SCORE.SYSTEM.CONST>  (15) 
0

>  <SCORE.SYSTEM.DIHEDRAL>  (15) 
0

>  <SCORE.SYSTEM.norm>  (15) 
0

>  <SCORE.heavy>  (15) 
18

>  <SCORE.norm>  (15) 
-0.664571

>  <XChemDeepScore>  (15) 
0.995152

>  <SuCOS_Max_Score>  (15) 
0.42989035652587826

>  <SuCOS_Max_FeatureMap_Score>  (15) 
0.31265917787051983

>  <SuCOS_Max_Protrude_Score>  (15) 
0.54712153518123663

>  <SuCOS_Max_Index>  (15) 
3

>  <SuCOS_Cum_Score>  (15) 
1.9501615320791363

>  <SuCOS_Cum_FeatureMap_Score>  (15) 
0.67655676202015769

>  <SuCOS_Cum_Protrude_Score>  (15) 
3.2237663021381149

$$$$
C[C@H](OCc1ccccc1)[C@@H](N)C(=O)NO
     RDKit          3D

 16 16  0  0  0  0  0  0  0  0999 V2000
   13.2623   -1.5781   21.8651 C   0  0  0  0  0  0  0  0  0  0  0  0
   12.1573   -0.5245   21.7179 C   0  0  2  0  0  0  0  0  0  0  0  0
   12.5466    0.7151   22.3694 O   0  0  0  0  0  0  0  0  0  0  0  0
   11.7737    1.8423   21.9512 C   0  0  0  0  0  0  0  0  0  0  0  0
   12.3710    3.1622   22.3905 C   0  0  0  0  0  0  0  0  0  0  0  0
   12.8793    4.1047   21.4905 C   0  0  0  0  0  0  0  0  0  0  0  0
   13.4065    5.3134   21.9542 C   0  0  0  0  0  0  0  0  0  0  0  0
   13.4340    5.5933   23.3197 C   0  0  0  0  0  0  0  0  0  0  0  0
   12.9228    4.6692   24.2258 C   0  0  0  0  0  0  0  0  0  0  0  0
   12.3960    3.4614   23.7634 C   0  0  0  0  0  0  0  0  0  0  0  0
   10.8327   -1.0126   22.3697 C   0  0  1  0  0  0  0  0  0  0  0  0
   10.8717   -0.8395   23.8554 N   0  0  0  0  0  0  0  0  0  0  0  0
    9.6302   -0.2227   21.7987 C   0  0  0  0  0  0  0  0  0  0  0  0
    8.9600    0.5109   22.5285 O   0  0  0  0  0  0  0  0  0  0  0  0
    9.4603   -0.4656   20.4377 N   0  0  0  0  0  0  0  0  0  0  0  0
    8.3945    0.1214   19.7790 O   0  0  0  0  0  0  0  0  0  0  0  0
  2 11  1  0
  2  3  1  0
  2  1  1  1
  3  4  1  0
  4  5  1  0
  5  6  2  0
  5 10  1  0
  6  7  1  0
  7  8  2  0
  8  9  1  0
  9 10  2  0
 11 12  1  1
 11 13  1  0
 13 14  2  0
 13 15  1  0
 15 16  1  0
M  END
>  <CHROM.1>  (16) 
79.25324683,162.59496919,-167.30944148,113.75479551,-115.52830627,11.52451780
1.46196753,22.20670621,-2.15066435,-0.49485492,-0.03699255

>  <Name>  (16) 
C[C@H](OCc1ccccc1)[C@@H](N)C(=O)NO

>  <RI>  (16) 
0

>  <Rbt.Current_Directory>  (16) 
/home/gse84885/github/im/docking-validation/targets/mpro/expts/jackall/work/Mpro-x0072_0/work/a4/ff5fd3dec70634994f1ba7bb3ac026

>  <Rbt.Executable>  (16) 
rbdock ($Id: //depot/dev/client3/rdock/2013.1/src/exe/rbdock.cxx#4 $)

>  <Rbt.Library>  (16) 
libRbt.so (2013.1, Build901 2013/11/27)

>  <Rbt.Parameter_File>  (16) 
/rDock_2013.1/data/scripts/dock.prm

>  <Rbt.Receptor>  (16) 
docking-global.prm

>  <SCORE>  (16) 
-8.11775

>  <SCORE.INTER>  (16) 
-6.87029

>  <SCORE.INTER.CONST>  (16) 
1

>  <SCORE.INTER.POLAR>  (16) 
0

>  <SCORE.INTER.REPUL>  (16) 
0

>  <SCORE.INTER.ROT>  (16) 
5

>  <SCORE.INTER.VDW>  (16) 
-17.2703

>  <SCORE.INTER.norm>  (16) 
-0.429393

>  <SCORE.INTRA>  (16) 
-1.24746

>  <SCORE.INTRA.DIHEDRAL>  (16) 
2.12531

>  <SCORE.INTRA.DIHEDRAL.0>  (16) 
2.64963

>  <SCORE.INTRA.POLAR>  (16) 
0

>  <SCORE.INTRA.POLAR.0>  (16) 
0

>  <SCORE.INTRA.REPUL>  (16) 
0

>  <SCORE.INTRA.REPUL.0>  (16) 
0

>  <SCORE.INTRA.VDW>  (16) 
-2.31012

>  <SCORE.INTRA.VDW.0>  (16) 
1.39022

>  <SCORE.INTRA.norm>  (16) 
-0.0779663

>  <SCORE.RESTR>  (16) 
0

>  <SCORE.RESTR.CAVITY>  (16) 
0

>  <SCORE.RESTR.norm>  (16) 
0

>  <SCORE.SYSTEM>  (16) 
0

>  <SCORE.SYSTEM.CONST>  (16) 
0

>  <SCORE.SYSTEM.DIHEDRAL>  (16) 
0

>  <SCORE.SYSTEM.norm>  (16) 
0

>  <SCORE.heavy>  (16) 
16

>  <SCORE.norm>  (16) 
-0.507359

>  <XChemDeepScore>  (16) 
0.994875

>  <SuCOS_Max_Score>  (16) 
0.31137126232840218

>  <SuCOS_Max_FeatureMap_Score>  (16) 
0.054151587350783202

>  <SuCOS_Max_Protrude_Score>  (16) 
0.56859093730602117

>  <SuCOS_Max_Index>  (16) 
1

>  <SuCOS_Cum_Score>  (16) 
1.6576773557081901

>  <SuCOS_Cum_FeatureMap_Score>  (16) 
0.14088796601276415

>  <SuCOS_Cum_Protrude_Score>  (16) 
3.174466745403616

$$$$
NNC(N)=NCCCCOCc1ccccc1
     RDKit          3D

 17 17  0  0  0  0  0  0  0  0999 V2000
   13.6447    5.8536   22.2795 N   0  0  0  0  0  0  0  0  0  0  0  0
   13.5706    4.4830   21.9835 N   0  0  0  0  0  0  0  0  0  0  0  0
   13.0893    3.6159   22.9369 C   0  0  0  0  0  0  0  0  0  0  0  0
   12.6598    4.1076   24.1089 N   0  0  0  0  0  0  0  0  0  0  0  0
   13.0549    2.2959   22.6693 N   0  0  0  0  0  0  0  0  0  0  0  0
   12.5368    1.2828   23.5982 C   0  0  0  0  0  0  0  0  0  0  0  0
   12.5032   -0.0890   22.9327 C   0  0  0  0  0  0  0  0  0  0  0  0
   11.5741   -0.0932   21.7257 C   0  0  0  0  0  0  0  0  0  0  0  0
   10.1228    0.1360   22.1287 C   0  0  0  0  0  0  0  0  0  0  0  0
    9.3299   -0.0145   20.9606 O   0  0  0  0  0  0  0  0  0  0  0  0
    7.9511    0.2457   21.2112 C   0  0  0  0  0  0  0  0  0  0  0  0
    7.1945   -0.0516   19.9476 C   0  0  0  0  0  0  0  0  0  0  0  0
    7.2610    0.8263   18.8565 C   0  0  0  0  0  0  0  0  0  0  0  0
    6.5227    0.5736   17.6999 C   0  0  0  0  0  0  0  0  0  0  0  0
    5.7062   -0.5533   17.6252 C   0  0  0  0  0  0  0  0  0  0  0  0
    5.6272   -1.4293   18.7068 C   0  0  0  0  0  0  0  0  0  0  0  0
    6.3647   -1.1779   19.8642 C   0  0  0  0  0  0  0  0  0  0  0  0
  1  2  1  0
  2  3  1  0
  3  4  1  0
  3  5  2  0
  5  6  1  0
  6  7  1  0
  7  8  1  0
  8  9  1  0
  9 10  1  0
 10 11  1  0
 11 12  1  0
 12 13  2  0
 12 17  1  0
 13 14  1  0
 14 15  2  0
 15 16  1  0
 16 17  2  0
M  END
>  <CHROM.1>  (17) 
173.91439912,-61.86336187,-65.14386593,-174.45778130,-177.08823462,-175.37363666
-74.32111349,9.99338008,1.18874191,21.18030469,0.23408279,-0.66471604,-0.40149211

>  <Name>  (17) 
NNC(N)=NCCCCOCc1ccccc1

>  <RI>  (17) 
0

>  <Rbt.Current_Directory>  (17) 
/home/gse84885/github/im/docking-validation/targets/mpro/expts/jackall/work/Mpro-x0072_0/work/87/6c62c7d517a38589cbca672746211b

>  <Rbt.Executable>  (17) 
rbdock ($Id: //depot/dev/client3/rdock/2013.1/src/exe/rbdock.cxx#4 $)

>  <Rbt.Library>  (17) 
libRbt.so (2013.1, Build901 2013/11/27)

>  <Rbt.Parameter_File>  (17) 
/rDock_2013.1/data/scripts/dock.prm

>  <Rbt.Receptor>  (17) 
docking-global.prm

>  <SCORE>  (17) 
-7.2154

>  <SCORE.INTER>  (17) 
-8.12627

>  <SCORE.INTER.CONST>  (17) 
1

>  <SCORE.INTER.POLAR>  (17) 
0

>  <SCORE.INTER.REPUL>  (17) 
0.00919419

>  <SCORE.INTER.ROT>  (17) 
7

>  <SCORE.INTER.VDW>  (17) 
-20.5722

>  <SCORE.INTER.norm>  (17) 
-0.478016

>  <SCORE.INTRA>  (17) 
0.908571

>  <SCORE.INTRA.DIHEDRAL>  (17) 
0.235897

>  <SCORE.INTRA.DIHEDRAL.0>  (17) 
3.17516

>  <SCORE.INTRA.POLAR>  (17) 
0

>  <SCORE.INTRA.POLAR.0>  (17) 
0

>  <SCORE.INTRA.REPUL>  (17) 
0

>  <SCORE.INTRA.REPUL.0>  (17) 
0

>  <SCORE.INTRA.VDW>  (17) 
0.790623

>  <SCORE.INTRA.VDW.0>  (17) 
-1.26987

>  <SCORE.INTRA.norm>  (17) 
0.0534454

>  <SCORE.RESTR>  (17) 
0.0023

>  <SCORE.RESTR.CAVITY>  (17) 
0.0023

>  <SCORE.RESTR.norm>  (17) 
0.000135294

>  <SCORE.SYSTEM>  (17) 
0

>  <SCORE.SYSTEM.CONST>  (17) 
0

>  <SCORE.SYSTEM.DIHEDRAL>  (17) 
0

>  <SCORE.SYSTEM.norm>  (17) 
0

>  <SCORE.heavy>  (17) 
17

>  <SCORE.norm>  (17) 
-0.424435

>  <XChemDeepScore>  (17) 
0.993915

>  <SuCOS_Max_Score>  (17) 
0.38829341466926337

>  <SuCOS_Max_FeatureMap_Score>  (17) 
0.16225946574002617

>  <SuCOS_Max_Protrude_Score>  (17) 
0.6143273635985006

>  <SuCOS_Max_Index>  (17) 
5

>  <SuCOS_Cum_Score>  (17) 
1.7249411369500605

>  <SuCOS_Cum_FeatureMap_Score>  (17) 
0.56056747212884195

>  <SuCOS_Cum_Protrude_Score>  (17) 
2.8893148017712789

$$$$
N=C(N)NC(=N)NCCCOCc1ccccc1
     RDKit          3D

 18 18  0  0  0  0  0  0  0  0999 V2000
    8.7025   -4.0065   23.8825 N   0  0  0  0  0  0  0  0  0  0  0  0
    9.8684   -3.6898   24.2992 C   0  0  0  0  0  0  0  0  0  0  0  0
   10.7803   -2.8696   23.7339 N   0  0  0  0  0  0  0  0  0  0  0  0
   10.6067   -2.0968   22.5128 C   0  0  0  0  0  0  0  0  0  0  0  0
   11.2508   -0.7171   22.6509 C   0  0  0  0  0  0  0  0  0  0  0  0
   10.9600    0.1595   21.4375 C   0  0  0  0  0  0  0  0  0  0  0  0
   11.7906    1.3159   21.4938 O   0  0  0  0  0  0  0  0  0  0  0  0
   11.3177    2.2422   22.4765 C   0  0  0  0  0  0  0  0  0  0  0  0
   12.2674    3.4058   22.5698 C   0  0  0  0  0  0  0  0  0  0  0  0
   12.7148    4.0532   21.4091 C   0  0  0  0  0  0  0  0  0  0  0  0
   13.5699    5.1532   21.4954 C   0  0  0  0  0  0  0  0  0  0  0  0
   13.9822    5.6202   22.7420 C   0  0  0  0  0  0  0  0  0  0  0  0
   13.5393    4.9895   23.9028 C   0  0  0  0  0  0  0  0  0  0  0  0
   12.6862    3.8876   23.8181 C   0  0  0  0  0  0  0  0  0  0  0  0
   10.3009   -4.2487   25.5072 N   0  0  0  0  0  0  0  0  0  0  0  0
    9.6558   -5.1058   26.3139 C   0  0  0  0  0  0  0  0  0  0  0  0
   10.2398   -5.4982   27.4573 N   0  0  0  0  0  0  0  0  0  0  0  0
    8.4510   -5.5902   26.0303 N   0  0  0  0  0  0  0  0  0  0  0  0
  1  2  2  0
  2  3  1  0
  2 15  1  0
  3  4  1  0
  4  5  1  0
  5  6  1  0
  6  7  1  0
  7  8  1  0
  8  9  1  0
  9 10  2  0
  9 14  1  0
 10 11  1  0
 11 12  2  0
 12 13  1  0
 13 14  2  0
 15 16  1  0
 16 17  1  0
 16 18  2  0
M  END
>  <CHROM.1>  (18) 
140.98972486,-174.27093245,-168.57206726,-75.04147434,176.34797150,47.89127236
11.23943023,-0.21377676,23.52013400,2.41566367,1.10437034,2.02103854

>  <Name>  (18) 
N=C(N)NC(=N)NCCCOCc1ccccc1

>  <RI>  (18) 
0

>  <Rbt.Current_Directory>  (18) 
/home/gse84885/github/im/docking-validation/targets/mpro/expts/jackall/work/Mpro-x0072_0/work/b3/72d5d645d03efea132091768123cd1

>  <Rbt.Executable>  (18) 
rbdock ($Id: //depot/dev/client3/rdock/2013.1/src/exe/rbdock.cxx#4 $)

>  <Rbt.Library>  (18) 
libRbt.so (2013.1, Build901 2013/11/27)

>  <Rbt.Parameter_File>  (18) 
/rDock_2013.1/data/scripts/dock.prm

>  <Rbt.Receptor>  (18) 
docking-global.prm

>  <SCORE>  (18) 
-7.52473

>  <SCORE.INTER>  (18) 
-9.14332

>  <SCORE.INTER.CONST>  (18) 
1

>  <SCORE.INTER.POLAR>  (18) 
0

>  <SCORE.INTER.REPUL>  (18) 
0

>  <SCORE.INTER.ROT>  (18) 
6

>  <SCORE.INTER.VDW>  (18) 
-20.5433

>  <SCORE.INTER.norm>  (18) 
-0.507962

>  <SCORE.INTRA>  (18) 
1.61859

>  <SCORE.INTRA.DIHEDRAL>  (18) 
1.02984

>  <SCORE.INTRA.DIHEDRAL.0>  (18) 
2.09744

>  <SCORE.INTRA.POLAR>  (18) 
0

>  <SCORE.INTRA.POLAR.0>  (18) 
0

>  <SCORE.INTRA.REPUL>  (18) 
0

>  <SCORE.INTRA.REPUL.0>  (18) 
0

>  <SCORE.INTRA.VDW>  (18) 
1.10368

>  <SCORE.INTRA.VDW.0>  (18) 
-0.843494

>  <SCORE.INTRA.norm>  (18) 
0.0899218

>  <SCORE.RESTR>  (18) 
0

>  <SCORE.RESTR.CAVITY>  (18) 
0

>  <SCORE.RESTR.norm>  (18) 
0

>  <SCORE.SYSTEM>  (18) 
0

>  <SCORE.SYSTEM.CONST>  (18) 
0

>  <SCORE.SYSTEM.DIHEDRAL>  (18) 
0

>  <SCORE.SYSTEM.norm>  (18) 
0

>  <SCORE.heavy>  (18) 
18

>  <SCORE.norm>  (18) 
-0.41804

>  <XChemDeepScore>  (18) 
0.993863

>  <SuCOS_Max_Score>  (18) 
0.34833585744037554

>  <SuCOS_Max_FeatureMap_Score>  (18) 
0.15429487621626353

>  <SuCOS_Max_Protrude_Score>  (18) 
0.54237683866448749

>  <SuCOS_Max_Index>  (18) 
0

>  <SuCOS_Cum_Score>  (18) 
1.3860760441852209

>  <SuCOS_Cum_FeatureMap_Score>  (18) 
0.38676169638210528

>  <SuCOS_Cum_Protrude_Score>  (18) 
2.385390391988337

$$$$
NC(N)=NCC(O)c1ccccc1
     RDKit          3D

 13 13  0  0  0  0  0  0  0  0999 V2000
   13.9506   -1.6153   21.2955 N   0  0  0  0  0  0  0  0  0  0  0  0
   13.0697   -1.0502   22.1477 C   0  0  0  0  0  0  0  0  0  0  0  0
   12.0268   -1.8834   22.3436 N   0  0  0  0  0  0  0  0  0  0  0  0
   13.2855    0.1161   22.6480 N   0  0  0  0  0  0  0  0  0  0  0  0
   12.2757    0.6227   23.5923 C   0  0  0  0  0  0  0  0  0  0  0  0
   11.4624    1.7982   22.9994 C   0  0  1  0  0  0  0  0  0  0  0  0
   10.3248    2.1302   23.7977 O   0  0  0  0  0  0  0  0  0  0  0  0
   12.3044    3.0607   22.8451 C   0  0  0  0  0  0  0  0  0  0  0  0
   12.5247    3.5933   21.5676 C   0  0  0  0  0  0  0  0  0  0  0  0
   13.2990    4.7426   21.3916 C   0  0  0  0  0  0  0  0  0  0  0  0
   13.8581    5.3866   22.4931 C   0  0  0  0  0  0  0  0  0  0  0  0
   13.6311    4.8843   23.7730 C   0  0  0  0  0  0  0  0  0  0  0  0
   12.8537    3.7353   23.9513 C   0  0  0  0  0  0  0  0  0  0  0  0
  1  2  1  0
  2  3  1  0
  2  4  2  0
  4  5  1  0
  5  6  1  0
  6  7  1  1
  6  8  1  0
  8  9  2  0
  8 13  1  0
  9 10  1  0
 10 11  2  0
 11 12  1  0
 12 13  2  0
M  END
>  <CHROM.1>  (19) 
-109.98930659,168.99971529,117.27266881,12.64619557,1.91675766,22.69704050
-1.63655871,0.62899579,0.13189652

>  <Name>  (19) 
NC(N)=NCC(O)c1ccccc1

>  <RI>  (19) 
0

>  <Rbt.Current_Directory>  (19) 
/home/gse84885/github/im/docking-validation/targets/mpro/expts/jackall/work/Mpro-x0072_0/work/58/392bfd9b81a9f3d4ecdb18c47b7f60

>  <Rbt.Executable>  (19) 
rbdock ($Id: //depot/dev/client3/rdock/2013.1/src/exe/rbdock.cxx#4 $)

>  <Rbt.Library>  (19) 
libRbt.so (2013.1, Build901 2013/11/27)

>  <Rbt.Parameter_File>  (19) 
/rDock_2013.1/data/scripts/dock.prm

>  <Rbt.Receptor>  (19) 
docking-global.prm

>  <SCORE>  (19) 
-9.35489

>  <SCORE.INTER>  (19) 
-8.17468

>  <SCORE.INTER.CONST>  (19) 
1

>  <SCORE.INTER.POLAR>  (19) 
0

>  <SCORE.INTER.REPUL>  (19) 
0

>  <SCORE.INTER.ROT>  (19) 
3

>  <SCORE.INTER.VDW>  (19) 
-16.5747

>  <SCORE.INTER.norm>  (19) 
-0.628821

>  <SCORE.INTRA>  (19) 
-1.18021

>  <SCORE.INTRA.DIHEDRAL>  (19) 
-1.81596

>  <SCORE.INTRA.DIHEDRAL.0>  (19) 
3.12855

>  <SCORE.INTRA.POLAR>  (19) 
0

>  <SCORE.INTRA.POLAR.0>  (19) 
0

>  <SCORE.INTRA.REPUL>  (19) 
0

>  <SCORE.INTRA.REPUL.0>  (19) 
0

>  <SCORE.INTRA.VDW>  (19) 
-0.272233

>  <SCORE.INTRA.VDW.0>  (19) 
-0.751304

>  <SCORE.INTRA.norm>  (19) 
-0.0907856

>  <SCORE.RESTR>  (19) 
0

>  <SCORE.RESTR.CAVITY>  (19) 
0

>  <SCORE.RESTR.norm>  (19) 
0

>  <SCORE.SYSTEM>  (19) 
0

>  <SCORE.SYSTEM.CONST>  (19) 
0

>  <SCORE.SYSTEM.DIHEDRAL>  (19) 
0

>  <SCORE.SYSTEM.norm>  (19) 
0

>  <SCORE.heavy>  (19) 
13

>  <SCORE.norm>  (19) 
-0.719607

>  <XChemDeepScore>  (19) 
0.992887

>  <SuCOS_Max_Score>  (19) 
0.3671351783278467

>  <SuCOS_Max_FeatureMap_Score>  (19) 
0.13783734130936409

>  <SuCOS_Max_Protrude_Score>  (19) 
0.59643301534632931

>  <SuCOS_Max_Index>  (19) 
1

>  <SuCOS_Cum_Score>  (19) 
1.5621562701271756

>  <SuCOS_Cum_FeatureMap_Score>  (19) 
0.20076870860021584

>  <SuCOS_Cum_Protrude_Score>  (19) 
2.9235438316541353

$$$$
CN(c1ccc(S(N)(=O)=O)cc1)C(C)(C)C(=O)O
     RDKit          3D

 18 18  0  0  0  0  0  0  0  0999 V2000
    9.0151    1.0926   24.1243 C   0  0  0  0  0  0  0  0  0  0  0  0
    9.6242    0.7557   22.8409 N   0  0  0  0  0  0  0  0  0  0  0  0
    8.7904    0.6634   21.7178 C   0  0  0  0  0  0  0  0  0  0  0  0
    7.5187    1.2562   21.6449 C   0  0  0  0  0  0  0  0  0  0  0  0
    6.6883    1.1347   20.5153 C   0  0  0  0  0  0  0  0  0  0  0  0
    7.1269    0.4202   19.4079 C   0  0  0  0  0  0  0  0  0  0  0  0
    6.0438    0.2624   17.9632 S   0  0  0  0  0  0  0  0  0  0  0  0
    4.5617    0.5054   18.4848 N   0  0  0  0  0  0  0  0  0  0  0  0
    6.5183    1.3130   17.0682 O   0  0  0  0  0  0  0  0  0  0  0  0
    6.3160   -1.0986   17.5066 O   0  0  0  0  0  0  0  0  0  0  0  0
    8.3862   -0.1618   19.4173 C   0  0  0  0  0  0  0  0  0  0  0  0
    9.2005   -0.0272   20.5543 C   0  0  0  0  0  0  0  0  0  0  0  0
   11.1358    0.8008   22.7318 C   0  0  0  0  0  0  0  0  0  0  0  0
   11.7159   -0.4877   22.0794 C   0  0  0  0  0  0  0  0  0  0  0  0
   11.4887    1.9609   21.7826 C   0  0  0  0  0  0  0  0  0  0  0  0
   12.0288    0.7845   24.0350 C   0  0  0  0  0  0  0  0  0  0  0  0
   13.0376    1.5598   24.0436 O   0  0  0  0  0  0  0  0  0  0  0  0
   11.6161    0.0560   24.9902 O   0  0  0  0  0  0  0  0  0  0  0  0
  1  2  1  0
  2  3  1  0
  2 13  1  0
  3  4  2  0
  3 12  1  0
  4  5  1  0
  5  6  2  0
  6  7  1  0
  6 11  1  0
  7  8  1  0
  7  9  2  0
  7 10  2  0
 11 12  2  0
 13 14  1  0
 13 15  1  0
 13 16  1  0
 16 17  2  0
 16 18  1  0
M  END
>  <CHROM.1>  (20) 
20.30883729,131.11612935,-22.23344701,-138.95442658,8.76361607,0.57430435
20.94182136,0.78855242,-0.10308332,1.37426197

>  <Name>  (20) 
CN(c1ccc(S(N)(=O)=O)cc1)C(C)(C)C(=O)O

>  <RI>  (20) 
0

>  <Rbt.Current_Directory>  (20) 
/home/gse84885/github/im/docking-validation/targets/mpro/expts/jackall/work/Mpro-x0072_0/work/6b/717f24575a27dd5c192bc77c5e9ed1

>  <Rbt.Executable>  (20) 
rbdock ($Id: //depot/dev/client3/rdock/2013.1/src/exe/rbdock.cxx#4 $)

>  <Rbt.Library>  (20) 
libRbt.so (2013.1, Build901 2013/11/27)

>  <Rbt.Parameter_File>  (20) 
/rDock_2013.1/data/scripts/dock.prm

>  <Rbt.Receptor>  (20) 
docking-global.prm

>  <SCORE>  (20) 
-12.7892

>  <SCORE.INTER>  (20) 
-9.1795

>  <SCORE.INTER.CONST>  (20) 
1

>  <SCORE.INTER.POLAR>  (20) 
0

>  <SCORE.INTER.REPUL>  (20) 
0.000324074

>  <SCORE.INTER.ROT>  (20) 
4

>  <SCORE.INTER.VDW>  (20) 
-18.5811

>  <SCORE.INTER.norm>  (20) 
-0.509972

>  <SCORE.INTRA>  (20) 
-3.60972

>  <SCORE.INTRA.DIHEDRAL>  (20) 
-0.454111

>  <SCORE.INTRA.DIHEDRAL.0>  (20) 
9.63695

>  <SCORE.INTRA.POLAR>  (20) 
0

>  <SCORE.INTRA.POLAR.0>  (20) 
0

>  <SCORE.INTRA.REPUL>  (20) 
0

>  <SCORE.INTRA.REPUL.0>  (20) 
0

>  <SCORE.INTRA.VDW>  (20) 
-3.38266

>  <SCORE.INTRA.VDW.0>  (20) 
7.27335

>  <SCORE.INTRA.norm>  (20) 
-0.20054

>  <SCORE.RESTR>  (20) 
0

>  <SCORE.RESTR.CAVITY>  (20) 
0

>  <SCORE.RESTR.norm>  (20) 
0

>  <SCORE.SYSTEM>  (20) 
0

>  <SCORE.SYSTEM.CONST>  (20) 
0

>  <SCORE.SYSTEM.DIHEDRAL>  (20) 
0

>  <SCORE.SYSTEM.norm>  (20) 
0

>  <SCORE.heavy>  (20) 
18

>  <SCORE.norm>  (20) 
-0.710512

>  <XChemDeepScore>  (20) 
0.992783

>  <SuCOS_Max_Score>  (20) 
0.39287173712672779

>  <SuCOS_Max_FeatureMap_Score>  (20) 
0.070202792387737231

>  <SuCOS_Max_Protrude_Score>  (20) 
0.7155406818657184

>  <SuCOS_Max_Index>  (20) 
5

>  <SuCOS_Cum_Score>  (20) 
1.651983659225166

>  <SuCOS_Cum_FeatureMap_Score>  (20) 
0.26277699716864977

>  <SuCOS_Cum_Protrude_Score>  (20) 
3.0411903212816824

$$$$
NC(N)=NCCCOCCOCc1ccccc1
     RDKit          3D

 18 18  0  0  0  0  0  0  0  0999 V2000
   14.0806    5.5216   22.5703 N   0  0  0  0  0  0  0  0  0  0  0  0
   13.4485    4.5467   23.2569 C   0  0  0  0  0  0  0  0  0  0  0  0
   13.2755    4.8850   24.5538 N   0  0  0  0  0  0  0  0  0  0  0  0
   13.0647    3.4906   22.6414 N   0  0  0  0  0  0  0  0  0  0  0  0
   12.3120    2.4993   23.4072 C   0  0  0  0  0  0  0  0  0  0  0  0
   12.8515    1.1043   23.1049 C   0  0  0  0  0  0  0  0  0  0  0  0
   12.0468    0.0570   23.8647 C   0  0  0  0  0  0  0  0  0  0  0  0
   10.6700    0.1560   23.5040 O   0  0  0  0  0  0  0  0  0  0  0  0
    9.8951   -0.8459   24.1649 C   0  0  0  0  0  0  0  0  0  0  0  0
    8.4155   -0.6191   23.8819 C   0  0  0  0  0  0  0  0  0  0  0  0
    8.1978   -0.6725   22.4740 O   0  0  0  0  0  0  0  0  0  0  0  0
    6.8303   -0.4401   22.1439 C   0  0  0  0  0  0  0  0  0  0  0  0
    6.6742   -0.5302   20.6486 C   0  0  0  0  0  0  0  0  0  0  0  0
    5.7436   -1.4171   20.0863 C   0  0  0  0  0  0  0  0  0  0  0  0
    5.6028   -1.5156   18.7012 C   0  0  0  0  0  0  0  0  0  0  0  0
    6.3879   -0.7265   17.8630 C   0  0  0  0  0  0  0  0  0  0  0  0
    7.3101    0.1644   18.4092 C   0  0  0  0  0  0  0  0  0  0  0  0
    7.4521    0.2640   19.7947 C   0  0  0  0  0  0  0  0  0  0  0  0
  1  2  1  0
  2  3  1  0
  2  4  2  0
  4  5  1  0
  5  6  1  0
  6  7  1  0
  7  8  1  0
  8  9  1  0
  9 10  1  0
 10 11  1  0
 11 12  1  0
 12 13  1  0
 13 14  2  0
 13 18  1  0
 14 15  1  0
 15 16  2  0
 16 17  1  0
 17 18  2  0
M  END
>  <CHROM.1>  (21) 
-134.74919791,-178.27171981,57.93857706,177.92318608,173.78312633,59.07551808
-178.84866479,-179.23322561,124.60520033,9.73483975,0.87828811,22.02527623
-0.03714151,-0.71079746,-0.94051410

>  <Name>  (21) 
NC(N)=NCCCOCCOCc1ccccc1

>  <RI>  (21) 
0

>  <Rbt.Current_Directory>  (21) 
/home/gse84885/github/im/docking-validation/targets/mpro/expts/jackall/work/Mpro-x0072_0/work/58/392bfd9b81a9f3d4ecdb18c47b7f60

>  <Rbt.Executable>  (21) 
rbdock ($Id: //depot/dev/client3/rdock/2013.1/src/exe/rbdock.cxx#4 $)

>  <Rbt.Library>  (21) 
libRbt.so (2013.1, Build901 2013/11/27)

>  <Rbt.Parameter_File>  (21) 
/rDock_2013.1/data/scripts/dock.prm

>  <Rbt.Receptor>  (21) 
docking-global.prm

>  <SCORE>  (21) 
-4.80525

>  <SCORE.INTER>  (21) 
-4.04358

>  <SCORE.INTER.CONST>  (21) 
1

>  <SCORE.INTER.POLAR>  (21) 
0

>  <SCORE.INTER.REPUL>  (21) 
0

>  <SCORE.INTER.ROT>  (21) 
9

>  <SCORE.INTER.VDW>  (21) 
-18.4436

>  <SCORE.INTER.norm>  (21) 
-0.224643

>  <SCORE.INTRA>  (21) 
-0.761672

>  <SCORE.INTRA.DIHEDRAL>  (21) 
-1.81724

>  <SCORE.INTRA.DIHEDRAL.0>  (21) 
3.12756

>  <SCORE.INTRA.POLAR>  (21) 
0

>  <SCORE.INTRA.POLAR.0>  (21) 
0

>  <SCORE.INTRA.REPUL>  (21) 
0

>  <SCORE.INTRA.REPUL.0>  (21) 
0

>  <SCORE.INTRA.VDW>  (21) 
0.14695

>  <SCORE.INTRA.VDW.0>  (21) 
-1.40521

>  <SCORE.INTRA.norm>  (21) 
-0.0423151

>  <SCORE.RESTR>  (21) 
0

>  <SCORE.RESTR.CAVITY>  (21) 
0

>  <SCORE.RESTR.norm>  (21) 
0

>  <SCORE.SYSTEM>  (21) 
0

>  <SCORE.SYSTEM.CONST>  (21) 
0

>  <SCORE.SYSTEM.DIHEDRAL>  (21) 
0

>  <SCORE.SYSTEM.norm>  (21) 
0

>  <SCORE.heavy>  (21) 
18

>  <SCORE.norm>  (21) 
-0.266958

>  <XChemDeepScore>  (21) 
0.991416

>  <SuCOS_Max_Score>  (21) 
0.29313085836352915

>  <SuCOS_Max_FeatureMap_Score>  (21) 
0.027150974985940459

>  <SuCOS_Max_Protrude_Score>  (21) 
0.55911074174111786

>  <SuCOS_Max_Index>  (21) 
5

>  <SuCOS_Cum_Score>  (21) 
1.7068468440311286

>  <SuCOS_Cum_FeatureMap_Score>  (21) 
0.38938108515891351

>  <SuCOS_Cum_Protrude_Score>  (21) 
3.0243126029033434

$$$$
O=S(=O)(c1ccccc1)N(O)c1ccccn1
     RDKit          3D

 17 18  0  0  0  0  0  0  0  0999 V2000
   12.9160    1.0448   24.7914 O   0  0  0  0  0  0  0  0  0  0  0  0
   11.9861    1.4748   23.7622 S   0  0  0  0  0  0  0  0  0  0  0  0
   10.5688    1.5559   24.0434 O   0  0  0  0  0  0  0  0  0  0  0  0
   12.5498    3.0459   23.1627 C   0  0  0  0  0  0  0  0  0  0  0  0
   12.4840    3.3298   21.7960 C   0  0  0  0  0  0  0  0  0  0  0  0
   12.9934    4.5406   21.3280 C   0  0  0  0  0  0  0  0  0  0  0  0
   13.5467    5.4612   22.2192 C   0  0  0  0  0  0  0  0  0  0  0  0
   13.5602    5.1955   23.5885 C   0  0  0  0  0  0  0  0  0  0  0  0
   13.0508    3.9900   24.0688 C   0  0  0  0  0  0  0  0  0  0  0  0
   12.2380    0.4781   22.4543 N   0  0  0  0  0  0  0  0  0  0  0  0
   13.4410   -0.2621   22.3537 O   0  0  0  0  0  0  0  0  0  0  0  0
   11.1398    0.0160   21.7954 C   0  0  0  0  0  0  0  0  0  0  0  0
   10.7413   -1.3235   21.8697 C   0  0  0  0  0  0  0  0  0  0  0  0
    9.5084   -1.7089   21.3394 C   0  0  0  0  0  0  0  0  0  0  0  0
    8.6954   -0.7559   20.7335 C   0  0  0  0  0  0  0  0  0  0  0  0
    9.1275    0.5597   20.6700 C   0  0  0  0  0  0  0  0  0  0  0  0
   10.3069    0.8991   21.2113 N   0  0  0  0  0  0  0  0  0  0  0  0
  1  2  2  0
  2  3  2  0
  2  4  1  0
  2 10  1  0
  4  5  2  0
  4  9  1  0
  5  6  1  0
  6  7  2  0
  7  8  1  0
  8  9  2  0
 10 11  1  0
 10 12  1  0
 12 13  2  0
 12 17  1  0
 13 14  1  0
 14 15  2  0
 15 16  1  0
 16 17  2  0
M  END
>  <CHROM.1>  (22) 
140.05375966,-18.45030797,-108.94439173,11.73673205,1.57213871,22.56685574
-0.62855320,0.85836909,2.65613754

>  <Name>  (22) 
O=S(=O)(c1ccccc1)N(O)c1ccccn1

>  <RI>  (22) 
0

>  <Rbt.Current_Directory>  (22) 
/home/gse84885/github/im/docking-validation/targets/mpro/expts/jackall/work/Mpro-x0072_0/work/0b/e1729020880a6dcb3474e64076cd22

>  <Rbt.Executable>  (22) 
rbdock ($Id: //depot/dev/client3/rdock/2013.1/src/exe/rbdock.cxx#4 $)

>  <Rbt.Library>  (22) 
libRbt.so (2013.1, Build901 2013/11/27)

>  <Rbt.Parameter_File>  (22) 
/rDock_2013.1/data/scripts/dock.prm

>  <Rbt.Receptor>  (22) 
docking-global.prm

>  <SCORE>  (22) 
-11.02

>  <SCORE.INTER>  (22) 
-11.0342

>  <SCORE.INTER.CONST>  (22) 
1

>  <SCORE.INTER.POLAR>  (22) 
0

>  <SCORE.INTER.REPUL>  (22) 
0.00594877

>  <SCORE.INTER.ROT>  (22) 
3

>  <SCORE.INTER.VDW>  (22) 
-19.4639

>  <SCORE.INTER.norm>  (22) 
-0.649069

>  <SCORE.INTRA>  (22) 
0.0141166

>  <SCORE.INTRA.DIHEDRAL>  (22) 
0.169651

>  <SCORE.INTRA.DIHEDRAL.0>  (22) 
3.40693

>  <SCORE.INTRA.POLAR>  (22) 
0

>  <SCORE.INTRA.POLAR.0>  (22) 
0

>  <SCORE.INTRA.REPUL>  (22) 
0

>  <SCORE.INTRA.REPUL.0>  (22) 
0

>  <SCORE.INTRA.VDW>  (22) 
-0.0707087

>  <SCORE.INTRA.VDW.0>  (22) 
-2.41805

>  <SCORE.INTRA.norm>  (22) 
0.000830391

>  <SCORE.RESTR>  (22) 
0

>  <SCORE.RESTR.CAVITY>  (22) 
0

>  <SCORE.RESTR.norm>  (22) 
0

>  <SCORE.SYSTEM>  (22) 
0

>  <SCORE.SYSTEM.CONST>  (22) 
0

>  <SCORE.SYSTEM.DIHEDRAL>  (22) 
0

>  <SCORE.SYSTEM.norm>  (22) 
0

>  <SCORE.heavy>  (22) 
17

>  <SCORE.norm>  (22) 
-0.648238

>  <XChemDeepScore>  (22) 
0.991255

>  <SuCOS_Max_Score>  (22) 
0.32308096329187896

>  <SuCOS_Max_FeatureMap_Score>  (22) 
0.12084677882595672

>  <SuCOS_Max_Protrude_Score>  (22) 
0.52531514775780119

>  <SuCOS_Max_Index>  (22) 
1

>  <SuCOS_Cum_Score>  (22) 
1.7110396488349564

>  <SuCOS_Cum_FeatureMap_Score>  (22) 
0.36460312356273122

>  <SuCOS_Cum_Protrude_Score>  (22) 
3.0574761741071819

$$$$
NC(N)=NCc1ccc(S(N)(=O)=O)cc1
     RDKit          3D

 15 15  0  0  0  0  0  0  0  0999 V2000
    7.2884    1.5721   17.0485 N   0  0  0  0  0  0  0  0  0  0  0  0
    7.2232    0.9547   18.2470 C   0  0  0  0  0  0  0  0  0  0  0  0
    5.9863    1.0947   18.7740 N   0  0  0  0  0  0  0  0  0  0  0  0
    8.2551    0.3598   18.7090 N   0  0  0  0  0  0  0  0  0  0  0  0
    8.1664   -0.2955   20.0073 C   0  0  0  0  0  0  0  0  0  0  0  0
    9.3637    0.0611   20.8571 C   0  0  0  0  0  0  0  0  0  0  0  0
   10.1794   -0.9466   21.3930 C   0  0  0  0  0  0  0  0  0  0  0  0
   11.2430   -0.6228   22.2366 C   0  0  0  0  0  0  0  0  0  0  0  0
   11.4936    0.7165   22.5459 C   0  0  0  0  0  0  0  0  0  0  0  0
   12.7944    1.1182   23.6718 S   0  0  0  0  0  0  0  0  0  0  0  0
   14.0917    0.2768   23.0168 N   0  0  0  0  0  0  0  0  0  0  0  0
   13.1299    2.5175   23.5436 O   0  0  0  0  0  0  0  0  0  0  0  0
   12.5300    0.5009   24.9508 O   0  0  0  0  0  0  0  0  0  0  0  0
   10.6856    1.7316   22.0291 C   0  0  0  0  0  0  0  0  0  0  0  0
    9.6232    1.4011   21.1862 C   0  0  0  0  0  0  0  0  0  0  0  0
  1  2  1  0
  2  3  1  0
  2  4  2  0
  4  5  1  0
  5  6  1  0
  6  7  2  0
  6 15  1  0
  7  8  1  0
  8  9  2  0
  9 10  1  0
  9 14  1  0
 10 11  1  0
 10 12  2  0
 10 13  2  0
 14 15  2  0
M  END
>  <CHROM.1>  (23) 
-133.56770760,-124.02341926,51.60362129,10.41660408,0.75343413,21.47744540
-2.99633863,0.73865177,2.89342464

>  <Name>  (23) 
NC(N)=NCc1ccc(S(N)(=O)=O)cc1

>  <RI>  (23) 
0

>  <Rbt.Current_Directory>  (23) 
/home/gse84885/github/im/docking-validation/targets/mpro/expts/jackall/work/Mpro-x0072_0/work/be/243cb0d661218c57ba027dc5bd42c7

>  <Rbt.Executable>  (23) 
rbdock ($Id: //depot/dev/client3/rdock/2013.1/src/exe/rbdock.cxx#4 $)

>  <Rbt.Library>  (23) 
libRbt.so (2013.1, Build901 2013/11/27)

>  <Rbt.Parameter_File>  (23) 
/rDock_2013.1/data/scripts/dock.prm

>  <Rbt.Receptor>  (23) 
docking-global.prm

>  <SCORE>  (23) 
-10.6512

>  <SCORE.INTER>  (23) 
-9.3788

>  <SCORE.INTER.CONST>  (23) 
1

>  <SCORE.INTER.POLAR>  (23) 
0

>  <SCORE.INTER.REPUL>  (23) 
0.0716872

>  <SCORE.INTER.ROT>  (23) 
3

>  <SCORE.INTER.VDW>  (23) 
-18.1372

>  <SCORE.INTER.norm>  (23) 
-0.625254

>  <SCORE.INTRA>  (23) 
-1.2724

>  <SCORE.INTRA.DIHEDRAL>  (23) 
-2.31122

>  <SCORE.INTRA.DIHEDRAL.0>  (23) 
4.48153

>  <SCORE.INTRA.POLAR>  (23) 
0

>  <SCORE.INTRA.POLAR.0>  (23) 
0

>  <SCORE.INTRA.REPUL>  (23) 
0

>  <SCORE.INTRA.REPUL.0>  (23) 
0

>  <SCORE.INTRA.VDW>  (23) 
-0.116793

>  <SCORE.INTRA.VDW.0>  (23) 
-0.993785

>  <SCORE.INTRA.norm>  (23) 
-0.0848269

>  <SCORE.RESTR>  (23) 
0

>  <SCORE.RESTR.CAVITY>  (23) 
0

>  <SCORE.RESTR.norm>  (23) 
0

>  <SCORE.SYSTEM>  (23) 
0

>  <SCORE.SYSTEM.CONST>  (23) 
0

>  <SCORE.SYSTEM.DIHEDRAL>  (23) 
0

>  <SCORE.SYSTEM.norm>  (23) 
0

>  <SCORE.heavy>  (23) 
15

>  <SCORE.norm>  (23) 
-0.710081

>  <XChemDeepScore>  (23) 
0.990289

>  <SuCOS_Max_Score>  (23) 
0.3183738417943241

>  <SuCOS_Max_FeatureMap_Score>  (23) 
0.0018929118044158284

>  <SuCOS_Max_Protrude_Score>  (23) 
0.63485477178423233

>  <SuCOS_Max_Index>  (23) 
5

>  <SuCOS_Cum_Score>  (23) 
1.5668562878029546

>  <SuCOS_Cum_FeatureMap_Score>  (23) 
0.23507834362007402

>  <SuCOS_Cum_Protrude_Score>  (23) 
2.8986342319858349

$$$$
COC(C(=O)O)C(C)(C)c1ccc(S(N)(=O)=O)cc1
     RDKit          3D

 19 19  0  0  0  0  0  0  0  0999 V2000
   12.4399   -1.4774   21.9012 C   0  0  0  0  0  0  0  0  0  0  0  0
   11.8117   -0.2062   21.7856 O   0  0  0  0  0  0  0  0  0  0  0  0
   10.9675    0.0845   22.9407 C   0  0  1  0  0  0  0  0  0  0  0  0
   11.8203    0.2395   24.2465 C   0  0  0  0  0  0  0  0  0  0  0  0
   12.8664    0.9449   24.1728 O   0  0  0  0  0  0  0  0  0  0  0  0
   11.3626   -0.3963   25.2434 O   0  0  0  0  0  0  0  0  0  0  0  0
   10.0622    1.3240   22.6458 C   0  0  0  0  0  0  0  0  0  0  0  0
    9.2799    1.7105   23.9292 C   0  0  0  0  0  0  0  0  0  0  0  0
   10.8920    2.5781   22.2674 C   0  0  0  0  0  0  0  0  0  0  0  0
    9.0854    0.9522   21.4849 C   0  0  0  0  0  0  0  0  0  0  0  0
    9.3572   -0.0909   20.5794 C   0  0  0  0  0  0  0  0  0  0  0  0
    8.5011   -0.3676   19.5046 C   0  0  0  0  0  0  0  0  0  0  0  0
    7.3535    0.4030   19.3180 C   0  0  0  0  0  0  0  0  0  0  0  0
    6.2845    0.0931   17.9405 S   0  0  0  0  0  0  0  0  0  0  0  0
    4.7794    0.3169   18.6528 N   0  0  0  0  0  0  0  0  0  0  0  0
    6.4434    1.1547   16.9737 O   0  0  0  0  0  0  0  0  0  0  0  0
    6.3718   -1.3047   17.5850 O   0  0  0  0  0  0  0  0  0  0  0  0
    7.0666    1.4549   20.1828 C   0  0  0  0  0  0  0  0  0  0  0  0
    7.9268    1.7247   21.2489 C   0  0  0  0  0  0  0  0  0  0  0  0
  1  2  1  0
  3  2  1  6
  3  4  1  0
  3  7  1  0
  4  5  2  0
  4  6  1  0
  7  8  1  0
  7  9  1  0
  7 10  1  0
 10 11  2  0
 10 19  1  0
 11 12  1  0
 12 13  2  0
 13 14  1  0
 13 18  1  0
 14 15  1  0
 14 16  2  0
 14 17  2  0
 18 19  2  0
M  END
>  <CHROM.1>  (24) 
65.85744242,45.55760300,-174.17326167,-21.82717736,141.00283620,9.04360657
0.43736747,20.98296105,-0.60012041,0.56814414,-2.27620096

>  <Name>  (24) 
COC(C(=O)O)C(C)(C)c1ccc(S(N)(=O)=O)cc1

>  <RI>  (24) 
0

>  <Rbt.Current_Directory>  (24) 
/home/gse84885/github/im/docking-validation/targets/mpro/expts/jackall/work/Mpro-x0072_0/work/79/130ff0f7450c1177763541cab4773d

>  <Rbt.Executable>  (24) 
rbdock ($Id: //depot/dev/client3/rdock/2013.1/src/exe/rbdock.cxx#4 $)

>  <Rbt.Library>  (24) 
libRbt.so (2013.1, Build901 2013/11/27)

>  <Rbt.Parameter_File>  (24) 
/rDock_2013.1/data/scripts/dock.prm

>  <Rbt.Receptor>  (24) 
docking-global.prm

>  <SCORE>  (24) 
-8.73926

>  <SCORE.INTER>  (24) 
-8.55855

>  <SCORE.INTER.CONST>  (24) 
1

>  <SCORE.INTER.POLAR>  (24) 
0

>  <SCORE.INTER.REPUL>  (24) 
0.0619149

>  <SCORE.INTER.ROT>  (24) 
5

>  <SCORE.INTER.VDW>  (24) 
-19.2681

>  <SCORE.INTER.norm>  (24) 
-0.45045

>  <SCORE.INTRA>  (24) 
-0.180712

>  <SCORE.INTRA.DIHEDRAL>  (24) 
0.00606279

>  <SCORE.INTRA.DIHEDRAL.0>  (24) 
4.45095

>  <SCORE.INTRA.POLAR>  (24) 
0

>  <SCORE.INTRA.POLAR.0>  (24) 
0

>  <SCORE.INTRA.REPUL>  (24) 
0

>  <SCORE.INTRA.REPUL.0>  (24) 
0

>  <SCORE.INTRA.VDW>  (24) 
-0.183743

>  <SCORE.INTRA.VDW.0>  (24) 
1.30005

>  <SCORE.INTRA.norm>  (24) 
-0.00951114

>  <SCORE.RESTR>  (24) 
0

>  <SCORE.RESTR.CAVITY>  (24) 
0

>  <SCORE.RESTR.norm>  (24) 
0

>  <SCORE.SYSTEM>  (24) 
0

>  <SCORE.SYSTEM.CONST>  (24) 
0

>  <SCORE.SYSTEM.DIHEDRAL>  (24) 
0

>  <SCORE.SYSTEM.norm>  (24) 
0

>  <SCORE.heavy>  (24) 
19

>  <SCORE.norm>  (24) 
-0.459961

>  <XChemDeepScore>  (24) 
0.990281

>  <SuCOS_Max_Score>  (24) 
0.40212951373559502

>  <SuCOS_Max_FeatureMap_Score>  (24) 
0.070856104715448856

>  <SuCOS_Max_Protrude_Score>  (24) 
0.73340292275574115

>  <SuCOS_Max_Index>  (24) 
5

>  <SuCOS_Cum_Score>  (24) 
1.8500995052591143

>  <SuCOS_Cum_FeatureMap_Score>  (24) 
0.26850206291322098

>  <SuCOS_Cum_Protrude_Score>  (24) 
3.4316969476050074

$$$$
CC(CCc1ccc(S(N)(=O)=O)cc1)C(=O)O
     RDKit          3D

 17 17  0  0  0  0  0  0  0  0999 V2000
   12.4195    0.2727   22.4946 C   0  0  0  0  0  0  0  0  0  0  0  0
   11.5425    1.4915   22.2044 C   0  0  1  0  0  0  0  0  0  0  0  0
   10.3535    1.6194   23.1835 C   0  0  0  0  0  0  0  0  0  0  0  0
    9.3251    0.4900   23.0376 C   0  0  0  0  0  0  0  0  0  0  0  0
    8.5379    0.5145   21.7462 C   0  0  0  0  0  0  0  0  0  0  0  0
    8.9907   -0.2079   20.6302 C   0  0  0  0  0  0  0  0  0  0  0  0
    8.2272   -0.2637   19.4614 C   0  0  0  0  0  0  0  0  0  0  0  0
    7.0059    0.4093   19.4036 C   0  0  0  0  0  0  0  0  0  0  0  0
    6.0158    0.2848   17.8878 S   0  0  0  0  0  0  0  0  0  0  0  0
    4.5078    0.5324   18.3217 N   0  0  0  0  0  0  0  0  0  0  0  0
    6.5573    1.3375   17.0373 O   0  0  0  0  0  0  0  0  0  0  0  0
    6.3028   -1.0774   17.4407 O   0  0  0  0  0  0  0  0  0  0  0  0
    6.5512    1.1556   20.4911 C   0  0  0  0  0  0  0  0  0  0  0  0
    7.3202    1.2080   21.6600 C   0  0  0  0  0  0  0  0  0  0  0  0
   12.3372    2.8156   22.1501 C   0  0  0  0  0  0  0  0  0  0  0  0
   12.8663    3.1934   23.2344 O   0  0  0  0  0  0  0  0  0  0  0  0
   12.3922    3.3603   21.0123 O   0  0  0  0  0  0  0  0  0  0  0  0
  2  1  1  1
  2  3  1  0
  2 15  1  0
  3  4  1  0
  4  5  1  0
  5  6  2  0
  5 14  1  0
  6  7  1  0
  7  8  2  0
  8  9  1  0
  8 13  1  0
  9 10  1  0
  9 11  2  0
  9 12  2  0
 13 14  2  0
 15 16  2  0
 15 17  1  0
M  END
>  <CHROM.1>  (25) 
-66.57804447,-65.75438582,-68.63743217,92.04817401,154.50337527,8.72475676
0.97631738,20.43523784,0.49474529,0.48954487,1.89257033

>  <Name>  (25) 
CC(CCc1ccc(S(N)(=O)=O)cc1)C(=O)O

>  <RI>  (25) 
0

>  <Rbt.Current_Directory>  (25) 
/home/gse84885/github/im/docking-validation/targets/mpro/expts/jackall/work/Mpro-x0072_0/work/e3/c1812550620eb48490c2a9c69a9f75

>  <Rbt.Executable>  (25) 
rbdock ($Id: //depot/dev/client3/rdock/2013.1/src/exe/rbdock.cxx#4 $)

>  <Rbt.Library>  (25) 
libRbt.so (2013.1, Build901 2013/11/27)

>  <Rbt.Parameter_File>  (25) 
/rDock_2013.1/data/scripts/dock.prm

>  <Rbt.Receptor>  (25) 
docking-global.prm

>  <SCORE>  (25) 
-8.79268

>  <SCORE.INTER>  (25) 
-7.03068

>  <SCORE.INTER.CONST>  (25) 
1

>  <SCORE.INTER.POLAR>  (25) 
0

>  <SCORE.INTER.REPUL>  (25) 
0.000735409

>  <SCORE.INTER.ROT>  (25) 
5

>  <SCORE.INTER.VDW>  (25) 
-17.4344

>  <SCORE.INTER.norm>  (25) 
-0.41357

>  <SCORE.INTRA>  (25) 
-1.762

>  <SCORE.INTRA.DIHEDRAL>  (25) 
0.364015

>  <SCORE.INTRA.DIHEDRAL.0>  (25) 
5.41566

>  <SCORE.INTRA.POLAR>  (25) 
0

>  <SCORE.INTRA.POLAR.0>  (25) 
0

>  <SCORE.INTRA.REPUL>  (25) 
0

>  <SCORE.INTRA.REPUL.0>  (25) 
0

>  <SCORE.INTRA.VDW>  (25) 
-1.94401

>  <SCORE.INTRA.VDW.0>  (25) 
1.01313

>  <SCORE.INTRA.norm>  (25) 
-0.103647

>  <SCORE.RESTR>  (25) 
0

>  <SCORE.RESTR.CAVITY>  (25) 
0

>  <SCORE.RESTR.norm>  (25) 
0

>  <SCORE.SYSTEM>  (25) 
0

>  <SCORE.SYSTEM.CONST>  (25) 
0

>  <SCORE.SYSTEM.DIHEDRAL>  (25) 
0

>  <SCORE.SYSTEM.norm>  (25) 
0

>  <SCORE.heavy>  (25) 
17

>  <SCORE.norm>  (25) 
-0.517217

>  <XChemDeepScore>  (25) 
0.989841

>  <SuCOS_Max_Score>  (25) 
0.34785795150104931

>  <SuCOS_Max_FeatureMap_Score>  (25) 
0.1205551312979186

>  <SuCOS_Max_Protrude_Score>  (25) 
0.57516077170418001

>  <SuCOS_Max_Index>  (25) 
6

>  <SuCOS_Cum_Score>  (25) 
1.3884654272285151

>  <SuCOS_Cum_FeatureMap_Score>  (25) 
0.23401717917321124

>  <SuCOS_Cum_Protrude_Score>  (25) 
2.5429136752838186

$$$$
COC(=O)c1ccc(CNC(=N)N)cc1
     RDKit          3D

 15 15  0  0  0  0  0  0  0  0999 V2000
   10.1506   -3.3575   24.1138 C   0  0  0  0  0  0  0  0  0  0  0  0
   10.8232   -2.1052   23.9643 O   0  0  0  0  0  0  0  0  0  0  0  0
   10.5673   -1.4794   22.7897 C   0  0  0  0  0  0  0  0  0  0  0  0
    9.8773   -1.9086   21.8819 O   0  0  0  0  0  0  0  0  0  0  0  0
   11.2547   -0.1570   22.7452 C   0  0  0  0  0  0  0  0  0  0  0  0
   12.1799    0.1403   23.7510 C   0  0  0  0  0  0  0  0  0  0  0  0
   12.8401    1.3739   23.7678 C   0  0  0  0  0  0  0  0  0  0  0  0
   12.5864    2.3424   22.7844 C   0  0  0  0  0  0  0  0  0  0  0  0
   13.2814    3.6803   22.8632 C   0  0  0  0  0  0  0  0  0  0  0  0
   13.1991    4.2256   24.2244 N   0  0  0  0  0  0  0  0  0  0  0  0
   12.9954    5.5228   24.5041 C   0  0  0  0  0  0  0  0  0  0  0  0
   12.8554    6.4520   23.5509 N   0  0  0  0  0  0  0  0  0  0  0  0
   12.9377    5.9232   25.7805 N   0  0  0  0  0  0  0  0  0  0  0  0
   11.6576    2.0405   21.7738 C   0  0  0  0  0  0  0  0  0  0  0  0
   10.9990    0.7991   21.7541 C   0  0  0  0  0  0  0  0  0  0  0  0
  1  2  1  0
  2  3  1  0
  3  4  2  0
  3  5  1  0
  5  6  2  0
  5 15  1  0
  6  7  1  0
  7  8  2  0
  8  9  1  0
  8 14  1  0
  9 10  1  0
 10 11  1  0
 11 12  1  0
 11 13  2  0
 14 15  2  0
M  END
>  <CHROM.1>  (26) 
-2.58345003,9.73558385,-46.99842472,-140.72744865,11.84211093,1.48101722
23.36247280,-2.78672070,-1.21638379,-1.04536563

>  <Name>  (26) 
COC(=O)c1ccc(CNC(=N)N)cc1

>  <RI>  (26) 
0

>  <Rbt.Current_Directory>  (26) 
/home/gse84885/github/im/docking-validation/targets/mpro/expts/jackall/work/Mpro-x0072_0/work/b9/ce7e3087a4785d9ea9b91aa93221f6

>  <Rbt.Executable>  (26) 
rbdock ($Id: //depot/dev/client3/rdock/2013.1/src/exe/rbdock.cxx#4 $)

>  <Rbt.Library>  (26) 
libRbt.so (2013.1, Build901 2013/11/27)

>  <Rbt.Parameter_File>  (26) 
/rDock_2013.1/data/scripts/dock.prm

>  <Rbt.Receptor>  (26) 
docking-global.prm

>  <SCORE>  (26) 
-7.27057

>  <SCORE.INTER>  (26) 
-7.00296

>  <SCORE.INTER.CONST>  (26) 
1

>  <SCORE.INTER.POLAR>  (26) 
0

>  <SCORE.INTER.REPUL>  (26) 
0

>  <SCORE.INTER.ROT>  (26) 
4

>  <SCORE.INTER.VDW>  (26) 
-16.403

>  <SCORE.INTER.norm>  (26) 
-0.466864

>  <SCORE.INTRA>  (26) 
-0.267615

>  <SCORE.INTRA.DIHEDRAL>  (26) 
-1.32172

>  <SCORE.INTRA.DIHEDRAL.0>  (26) 
3.1075

>  <SCORE.INTRA.POLAR>  (26) 
0

>  <SCORE.INTRA.POLAR.0>  (26) 
0

>  <SCORE.INTRA.REPUL>  (26) 
0

>  <SCORE.INTRA.REPUL.0>  (26) 
0

>  <SCORE.INTRA.VDW>  (26) 
0.393245

>  <SCORE.INTRA.VDW.0>  (26) 
1.42268

>  <SCORE.INTRA.norm>  (26) 
-0.017841

>  <SCORE.RESTR>  (26) 
0

>  <SCORE.RESTR.CAVITY>  (26) 
0

>  <SCORE.RESTR.norm>  (26) 
0

>  <SCORE.SYSTEM>  (26) 
0

>  <SCORE.SYSTEM.CONST>  (26) 
0

>  <SCORE.SYSTEM.DIHEDRAL>  (26) 
0

>  <SCORE.SYSTEM.norm>  (26) 
0

>  <SCORE.heavy>  (26) 
15

>  <SCORE.norm>  (26) 
-0.484705

>  <XChemDeepScore>  (26) 
0.989321

>  <SuCOS_Max_Score>  (26) 
0.32380594377593208

>  <SuCOS_Max_FeatureMap_Score>  (26) 
0.16191537013892884

>  <SuCOS_Max_Protrude_Score>  (26) 
0.48569651741293529

>  <SuCOS_Max_Index>  (26) 
1

>  <SuCOS_Cum_Score>  (26) 
1.7199978429665861

>  <SuCOS_Cum_FeatureMap_Score>  (26) 
0.59757807626686665

>  <SuCOS_Cum_Protrude_Score>  (26) 
2.8424176096663056

$$$$
NNC(N)=NC(CO)c1ccccc1
     RDKit          3D

 14 14  0  0  0  0  0  0  0  0999 V2000
   13.7549   -1.4862   21.2255 N   0  0  0  0  0  0  0  0  0  0  0  0
   13.9572   -0.8709   22.4698 N   0  0  0  0  0  0  0  0  0  0  0  0
   13.1996    0.2266   22.8153 C   0  0  0  0  0  0  0  0  0  0  0  0
   13.4542    0.8191   23.9798 N   0  0  0  0  0  0  0  0  0  0  0  0
   12.2335    0.6445   21.9760 N   0  0  0  0  0  0  0  0  0  0  0  0
   11.3460    1.8228   22.1380 C   0  0  1  0  0  0  0  0  0  0  0  0
   10.1376    1.5054   23.0540 C   0  0  0  0  0  0  0  0  0  0  0  0
   10.5592    1.0501   24.3458 O   0  0  0  0  0  0  0  0  0  0  0  0
   12.1929    3.0352   22.4896 C   0  0  0  0  0  0  0  0  0  0  0  0
   12.7381    3.8144   21.4506 C   0  0  0  0  0  0  0  0  0  0  0  0
   13.5297    4.9311   21.7271 C   0  0  0  0  0  0  0  0  0  0  0  0
   13.7896    5.2927   23.0475 C   0  0  0  0  0  0  0  0  0  0  0  0
   13.2477    4.5449   24.0870 C   0  0  0  0  0  0  0  0  0  0  0  0
   12.4527    3.4295   23.8108 C   0  0  0  0  0  0  0  0  0  0  0  0
  1  2  1  0
  2  3  1  0
  3  4  1  0
  3  5  2  0
  5  6  1  0
  6  7  1  1
  6  9  1  0
  7  8  1  0
  9 10  2  0
  9 14  1  0
 10 11  1  0
 11 12  2  0
 12 13  1  0
 13 14  2  0
M  END
>  <CHROM.1>  (27) 
-82.50942500,57.40221394,87.85494834,12.58255232,1.99208156,22.77894966,-1.60786159
0.48208381,0.10550986

>  <Name>  (27) 
NNC(N)=NC(CO)c1ccccc1

>  <RI>  (27) 
0

>  <Rbt.Current_Directory>  (27) 
/home/gse84885/github/im/docking-validation/targets/mpro/expts/jackall/work/Mpro-x0072_0/work/87/6c62c7d517a38589cbca672746211b

>  <Rbt.Executable>  (27) 
rbdock ($Id: //depot/dev/client3/rdock/2013.1/src/exe/rbdock.cxx#4 $)

>  <Rbt.Library>  (27) 
libRbt.so (2013.1, Build901 2013/11/27)

>  <Rbt.Parameter_File>  (27) 
/rDock_2013.1/data/scripts/dock.prm

>  <Rbt.Receptor>  (27) 
docking-global.prm

>  <SCORE>  (27) 
-8.66549

>  <SCORE.INTER>  (27) 
-7.85434

>  <SCORE.INTER.CONST>  (27) 
1

>  <SCORE.INTER.POLAR>  (27) 
0

>  <SCORE.INTER.REPUL>  (27) 
0.018346

>  <SCORE.INTER.ROT>  (27) 
3

>  <SCORE.INTER.VDW>  (27) 
-16.3461

>  <SCORE.INTER.norm>  (27) 
-0.561025

>  <SCORE.INTRA>  (27) 
-0.811149

>  <SCORE.INTRA.DIHEDRAL>  (27) 
-0.574476

>  <SCORE.INTRA.DIHEDRAL.0>  (27) 
3.02372

>  <SCORE.INTRA.POLAR>  (27) 
0

>  <SCORE.INTRA.POLAR.0>  (27) 
0

>  <SCORE.INTRA.REPUL>  (27) 
0

>  <SCORE.INTRA.REPUL.0>  (27) 
0

>  <SCORE.INTRA.VDW>  (27) 
-0.523911

>  <SCORE.INTRA.VDW.0>  (27) 
-0.793817

>  <SCORE.INTRA.norm>  (27) 
-0.0579392

>  <SCORE.RESTR>  (27) 
0

>  <SCORE.RESTR.CAVITY>  (27) 
0

>  <SCORE.RESTR.norm>  (27) 
0

>  <SCORE.SYSTEM>  (27) 
0

>  <SCORE.SYSTEM.CONST>  (27) 
0

>  <SCORE.SYSTEM.DIHEDRAL>  (27) 
0

>  <SCORE.SYSTEM.norm>  (27) 
0

>  <SCORE.heavy>  (27) 
14

>  <SCORE.norm>  (27) 
-0.618964

>  <XChemDeepScore>  (27) 
0.988625

>  <SuCOS_Max_Score>  (27) 
0.36178825547609056

>  <SuCOS_Max_FeatureMap_Score>  (27) 
0.15928783405462824

>  <SuCOS_Max_Protrude_Score>  (27) 
0.56428867689755291

>  <SuCOS_Max_Index>  (27) 
1

>  <SuCOS_Cum_Score>  (27) 
1.5134558865342069

>  <SuCOS_Cum_FeatureMap_Score>  (27) 
0.23153382805595391

>  <SuCOS_Cum_Protrude_Score>  (27) 
2.7953779450124605

$$$$
CN(CCC(=O)O)c1ccc(S(N)(=O)=O)cc1
     RDKit          3D

 17 17  0  0  0  0  0  0  0  0999 V2000
   10.0296    2.6444   23.0855 C   0  0  0  0  0  0  0  0  0  0  0  0
   10.1167    1.4364   22.2778 N   0  0  0  0  0  0  0  0  0  0  0  0
   11.4365    0.7577   22.2269 C   0  0  0  0  0  0  0  0  0  0  0  0
   11.4831   -0.4675   23.1251 C   0  0  0  0  0  0  0  0  0  0  0  0
   11.3148   -0.1197   24.6007 C   0  0  0  0  0  0  0  0  0  0  0  0
   10.2623   -0.5217   25.1707 O   0  0  0  0  0  0  0  0  0  0  0  0
   12.2597    0.5680   25.0889 O   0  0  0  0  0  0  0  0  0  0  0  0
    9.1285    1.1537   21.3312 C   0  0  0  0  0  0  0  0  0  0  0  0
    7.9390    1.9036   21.2386 C   0  0  0  0  0  0  0  0  0  0  0  0
    6.9555    1.6342   20.2748 C   0  0  0  0  0  0  0  0  0  0  0  0
    7.1417    0.5866   19.3782 C   0  0  0  0  0  0  0  0  0  0  0  0
    5.8705    0.2664   18.1319 S   0  0  0  0  0  0  0  0  0  0  0  0
    4.4755    0.5393   18.8420 N   0  0  0  0  0  0  0  0  0  0  0  0
    6.1854    1.2234   17.0719 O   0  0  0  0  0  0  0  0  0  0  0  0
    6.1167   -1.1304   17.7863 O   0  0  0  0  0  0  0  0  0  0  0  0
    8.2851   -0.1985   19.4501 C   0  0  0  0  0  0  0  0  0  0  0  0
    9.2558    0.0885   20.4181 C   0  0  0  0  0  0  0  0  0  0  0  0
  1  2  1  0
  2  3  1  0
  2  8  1  0
  3  4  1  0
  4  5  1  0
  5  6  2  0
  5  7  1  0
  8  9  2  0
  8 17  1  0
  9 10  1  0
 10 11  2  0
 11 12  1  0
 11 16  1  0
 12 13  1  0
 12 14  2  0
 12 15  2  0
 16 17  2  0
M  END
>  <CHROM.1>  (28) 
102.09772031,-8.64316938,-63.65044541,113.11430547,-37.23388306,8.52296503
0.57337105,20.94373722,0.24156760,-0.81415763,0.30641580

>  <Name>  (28) 
CN(CCC(=O)O)c1ccc(S(N)(=O)=O)cc1

>  <RI>  (28) 
0

>  <Rbt.Current_Directory>  (28) 
/home/gse84885/github/im/docking-validation/targets/mpro/expts/jackall/work/Mpro-x0072_0/work/c1/02c7dd49825634e2b25e4fe7566a6e

>  <Rbt.Executable>  (28) 
rbdock ($Id: //depot/dev/client3/rdock/2013.1/src/exe/rbdock.cxx#4 $)

>  <Rbt.Library>  (28) 
libRbt.so (2013.1, Build901 2013/11/27)

>  <Rbt.Parameter_File>  (28) 
/rDock_2013.1/data/scripts/dock.prm

>  <Rbt.Receptor>  (28) 
docking-global.prm

>  <SCORE>  (28) 
-9.78208

>  <SCORE.INTER>  (28) 
-7.18792

>  <SCORE.INTER.CONST>  (28) 
1

>  <SCORE.INTER.POLAR>  (28) 
0

>  <SCORE.INTER.REPUL>  (28) 
0.0357951

>  <SCORE.INTER.ROT>  (28) 
5

>  <SCORE.INTER.VDW>  (28) 
-17.7669

>  <SCORE.INTER.norm>  (28) 
-0.422819

>  <SCORE.INTRA>  (28) 
-2.59416

>  <SCORE.INTRA.DIHEDRAL>  (28) 
-2.16391

>  <SCORE.INTRA.DIHEDRAL.0>  (28) 
7.60831

>  <SCORE.INTRA.POLAR>  (28) 
0

>  <SCORE.INTRA.POLAR.0>  (28) 
0

>  <SCORE.INTRA.REPUL>  (28) 
0

>  <SCORE.INTRA.REPUL.0>  (28) 
0

>  <SCORE.INTRA.VDW>  (28) 
-1.51221

>  <SCORE.INTRA.VDW.0>  (28) 
2.41468

>  <SCORE.INTRA.norm>  (28) 
-0.152598

>  <SCORE.RESTR>  (28) 
0

>  <SCORE.RESTR.CAVITY>  (28) 
0

>  <SCORE.RESTR.norm>  (28) 
0

>  <SCORE.SYSTEM>  (28) 
0

>  <SCORE.SYSTEM.CONST>  (28) 
0

>  <SCORE.SYSTEM.DIHEDRAL>  (28) 
0

>  <SCORE.SYSTEM.norm>  (28) 
0

>  <SCORE.heavy>  (28) 
17

>  <SCORE.norm>  (28) 
-0.575416

>  <XChemDeepScore>  (28) 
0.988333

>  <SuCOS_Max_Score>  (28) 
0.3745193588556307

>  <SuCOS_Max_FeatureMap_Score>  (28) 
0.12443935873690234

>  <SuCOS_Max_Protrude_Score>  (28) 
0.62459935897435903

>  <SuCOS_Max_Index>  (28) 
6

>  <SuCOS_Cum_Score>  (28) 
1.6454427001921088

>  <SuCOS_Cum_FeatureMap_Score>  (28) 
0.45621605870404747

>  <SuCOS_Cum_Protrude_Score>  (28) 
2.8346693416801707

$$$$
N[C@H](CC(=O)NO)Cc1ccccc1
     RDKit          3D

 14 14  0  0  0  0  0  0  0  0999 V2000
   13.4142    0.7446   22.7601 N   0  0  0  0  0  0  0  0  0  0  0  0
   11.9549    0.9198   22.5306 C   0  0  2  0  0  0  0  0  0  0  0  0
   11.4336   -0.3088   21.7652 C   0  0  0  0  0  0  0  0  0  0  0  0
   11.8319   -1.6248   22.4219 C   0  0  0  0  0  0  0  0  0  0  0  0
   11.0756   -2.2160   23.1969 O   0  0  0  0  0  0  0  0  0  0  0  0
   13.0821   -2.1365   22.1614 N   0  0  0  0  0  0  0  0  0  0  0  0
   13.9688   -1.5155   21.3045 O   0  0  0  0  0  0  0  0  0  0  0  0
   11.6501    2.2258   21.7442 C   0  0  0  0  0  0  0  0  0  0  0  0
   12.3363    3.4804   22.2530 C   0  0  0  0  0  0  0  0  0  0  0  0
   12.9706    4.3489   21.3526 C   0  0  0  0  0  0  0  0  0  0  0  0
   13.5741    5.5250   21.8021 C   0  0  0  0  0  0  0  0  0  0  0  0
   13.5467    5.8495   23.1574 C   0  0  0  0  0  0  0  0  0  0  0  0
   12.9155    4.9975   24.0614 C   0  0  0  0  0  0  0  0  0  0  0  0
   12.3098    3.8212   23.6121 C   0  0  0  0  0  0  0  0  0  0  0  0
  2  8  1  0
  2  3  1  0
  2  1  1  6
  3  4  1  0
  4  5  2  0
  4  6  1  0
  6  7  1  0
  8  9  1  0
  9 10  2  0
  9 14  1  0
 10 11  1  0
 11 12  2  0
 12 13  1  0
 13 14  2  0
M  END
>  <CHROM.1>  (29) 
-48.05350638,51.35944538,95.49001310,133.65879211,12.57555912,1.58496647
22.42560679,-1.71197647,0.66336388,0.15503303

>  <Name>  (29) 
N[C@H](CC(=O)NO)Cc1ccccc1

>  <RI>  (29) 
0

>  <Rbt.Current_Directory>  (29) 
/home/gse84885/github/im/docking-validation/targets/mpro/expts/jackall/work/Mpro-x0072_0/work/50/3bc72b7b4401154777d1f53294af42

>  <Rbt.Executable>  (29) 
rbdock ($Id: //depot/dev/client3/rdock/2013.1/src/exe/rbdock.cxx#4 $)

>  <Rbt.Library>  (29) 
libRbt.so (2013.1, Build901 2013/11/27)

>  <Rbt.Parameter_File>  (29) 
/rDock_2013.1/data/scripts/dock.prm

>  <Rbt.Receptor>  (29) 
docking-global.prm

>  <SCORE>  (29) 
-8.33151

>  <SCORE.INTER>  (29) 
-8.22097

>  <SCORE.INTER.CONST>  (29) 
1

>  <SCORE.INTER.POLAR>  (29) 
0

>  <SCORE.INTER.REPUL>  (29) 
0

>  <SCORE.INTER.ROT>  (29) 
4

>  <SCORE.INTER.VDW>  (29) 
-17.621

>  <SCORE.INTER.norm>  (29) 
-0.587212

>  <SCORE.INTRA>  (29) 
-0.110549

>  <SCORE.INTRA.DIHEDRAL>  (29) 
0.537232

>  <SCORE.INTRA.DIHEDRAL.0>  (29) 
2.63192

>  <SCORE.INTRA.POLAR>  (29) 
0

>  <SCORE.INTRA.POLAR.0>  (29) 
0

>  <SCORE.INTRA.REPUL>  (29) 
0

>  <SCORE.INTRA.REPUL.0>  (29) 
0

>  <SCORE.INTRA.VDW>  (29) 
-0.379165

>  <SCORE.INTRA.VDW.0>  (29) 
-0.813597

>  <SCORE.INTRA.norm>  (29) 
-0.00789634

>  <SCORE.RESTR>  (29) 
0

>  <SCORE.RESTR.CAVITY>  (29) 
0

>  <SCORE.RESTR.norm>  (29) 
0

>  <SCORE.SYSTEM>  (29) 
0

>  <SCORE.SYSTEM.CONST>  (29) 
0

>  <SCORE.SYSTEM.DIHEDRAL>  (29) 
0

>  <SCORE.SYSTEM.norm>  (29) 
0

>  <SCORE.heavy>  (29) 
14

>  <SCORE.norm>  (29) 
-0.595108

>  <XChemDeepScore>  (29) 
0.987444

>  <SuCOS_Max_Score>  (29) 
0.35333814144451642

>  <SuCOS_Max_FeatureMap_Score>  (29) 
0.12745604232495159

>  <SuCOS_Max_Protrude_Score>  (29) 
0.57922024056408128

>  <SuCOS_Max_Index>  (29) 
1

>  <SuCOS_Cum_Score>  (29) 
1.5480432494945815

>  <SuCOS_Cum_FeatureMap_Score>  (29) 
0.21498493984105357

>  <SuCOS_Cum_Protrude_Score>  (29) 
2.8811015591481093

$$$$
NC(N)=Nc1ccc(S(N)(=O)=O)cc1
     RDKit          3D

 14 14  0  0  0  0  0  0  0  0999 V2000
   12.3853    5.7915   25.7533 N   0  0  0  0  0  0  0  0  0  0  0  0
   12.0348    5.9569   24.2128 S   0  0  0  0  0  0  0  0  0  0  0  0
   10.6991    6.4856   23.9629 O   0  0  0  0  0  0  0  0  0  0  0  0
   13.0952    6.5605   23.4150 O   0  0  0  0  0  0  0  0  0  0  0  0
   11.9644    4.2820   23.5374 C   0  0  0  0  0  0  0  0  0  0  0  0
   10.7629    3.7369   23.0937 C   0  0  0  0  0  0  0  0  0  0  0  0
   10.7446    2.4160   22.6318 C   0  0  0  0  0  0  0  0  0  0  0  0
   11.9076    1.6309   22.6217 C   0  0  0  0  0  0  0  0  0  0  0  0
   11.7803    0.2777   22.2628 N   0  0  0  0  0  0  0  0  0  0  0  0
   12.7615   -0.5519   22.2148 C   0  0  0  0  0  0  0  0  0  0  0  0
   14.0944   -0.3899   22.4024 N   0  0  0  0  0  0  0  0  0  0  0  0
   12.5204   -1.8412   21.8845 N   0  0  0  0  0  0  0  0  0  0  0  0
   13.0977    2.1998   23.0987 C   0  0  0  0  0  0  0  0  0  0  0  0
   13.1382    3.5295   23.5252 C   0  0  0  0  0  0  0  0  0  0  0  0
  1  2  1  0
  2  3  2  0
  2  4  2  0
  2  5  1  0
  5  6  2  0
  5 14  1  0
  6  7  1  0
  7  8  2  0
  8  9  1  0
  8 13  1  0
  9 10  2  0
 10 11  1  0
 10 12  1  0
 13 14  2  0
M  END
>  <CHROM.1>  (30) 
112.65228857,-179.87971157,12.19709860,3.23042111,23.29875297,-1.67830098
0.19952623,-2.82262695

>  <Name>  (30) 
NC(N)=Nc1ccc(S(N)(=O)=O)cc1

>  <RI>  (30) 
0

>  <Rbt.Current_Directory>  (30) 
/home/gse84885/github/im/docking-validation/targets/mpro/expts/jackall/work/Mpro-x0072_0/work/9a/df259ad495a9272ae6477a4fe53fcc

>  <Rbt.Executable>  (30) 
rbdock ($Id: //depot/dev/client3/rdock/2013.1/src/exe/rbdock.cxx#4 $)

>  <Rbt.Library>  (30) 
libRbt.so (2013.1, Build901 2013/11/27)

>  <Rbt.Parameter_File>  (30) 
/rDock_2013.1/data/scripts/dock.prm

>  <Rbt.Receptor>  (30) 
docking-global.prm

>  <SCORE>  (30) 
-8.79533

>  <SCORE.INTER>  (30) 
-7.89152

>  <SCORE.INTER.CONST>  (30) 
1

>  <SCORE.INTER.POLAR>  (30) 
0

>  <SCORE.INTER.REPUL>  (30) 
0.00787579

>  <SCORE.INTER.ROT>  (30) 
2

>  <SCORE.INTER.VDW>  (30) 
-15.3309

>  <SCORE.INTER.norm>  (30) 
-0.56368

>  <SCORE.INTRA>  (30) 
-0.903813

>  <SCORE.INTRA.DIHEDRAL>  (30) 
-2.72075

>  <SCORE.INTRA.DIHEDRAL.0>  (30) 
3.93775

>  <SCORE.INTRA.POLAR>  (30) 
0

>  <SCORE.INTRA.POLAR.0>  (30) 
0

>  <SCORE.INTRA.REPUL>  (30) 
0

>  <SCORE.INTRA.REPUL.0>  (30) 
0

>  <SCORE.INTRA.VDW>  (30) 
0.456562

>  <SCORE.INTRA.VDW.0>  (30) 
-0.786313

>  <SCORE.INTRA.norm>  (30) 
-0.0645581

>  <SCORE.RESTR>  (30) 
0

>  <SCORE.RESTR.CAVITY>  (30) 
0

>  <SCORE.RESTR.norm>  (30) 
0

>  <SCORE.SYSTEM>  (30) 
0

>  <SCORE.SYSTEM.CONST>  (30) 
0

>  <SCORE.SYSTEM.DIHEDRAL>  (30) 
0

>  <SCORE.SYSTEM.norm>  (30) 
0

>  <SCORE.heavy>  (30) 
14

>  <SCORE.norm>  (30) 
-0.628238

>  <XChemDeepScore>  (30) 
0.986769

>  <SuCOS_Max_Score>  (30) 
0.38304854984648384

>  <SuCOS_Max_FeatureMap_Score>  (30) 
0.14752600357940016

>  <SuCOS_Max_Protrude_Score>  (30) 
0.61857109611356753

>  <SuCOS_Max_Index>  (30) 
2

>  <SuCOS_Cum_Score>  (30) 
1.5932201106681285

>  <SuCOS_Cum_FeatureMap_Score>  (30) 
0.34366131976617365

>  <SuCOS_Cum_Protrude_Score>  (30) 
2.8427789015700835

$$$$
COC(=O)c1ccc(NO)cc1
     RDKit          3D

 12 12  0  0  0  0  0  0  0  0999 V2000
    6.2565   -0.7456   19.5647 C   0  0  0  0  0  0  0  0  0  0  0  0
    7.5400   -0.8788   20.1791 O   0  0  0  0  0  0  0  0  0  0  0  0
    8.1227    0.2996   20.5083 C   0  0  0  0  0  0  0  0  0  0  0  0
    7.6328    1.4083   20.3536 O   0  0  0  0  0  0  0  0  0  0  0  0
    9.4726    0.0711   21.0928 C   0  0  0  0  0  0  0  0  0  0  0  0
   10.2703    1.1867   21.3751 C   0  0  0  0  0  0  0  0  0  0  0  0
   11.5533    1.0204   21.9100 C   0  0  0  0  0  0  0  0  0  0  0  0
   12.0467   -0.2552   22.2066 C   0  0  0  0  0  0  0  0  0  0  0  0
   13.3659   -0.4005   22.6939 N   0  0  0  0  0  0  0  0  0  0  0  0
   14.0666    0.7438   23.0817 O   0  0  0  0  0  0  0  0  0  0  0  0
   11.2545   -1.3672   21.8964 C   0  0  0  0  0  0  0  0  0  0  0  0
    9.9743   -1.2091   21.3504 C   0  0  0  0  0  0  0  0  0  0  0  0
  1  2  1  0
  2  3  1  0
  3  4  2  0
  3  5  1  0
  5  6  2  0
  5 12  1  0
  6  7  1  0
  7  8  2  0
  8  9  1  0
  8 11  1  0
  9 10  1  0
 11 12  2  0
M  END
>  <CHROM.1>  (31) 
1.91371207,174.11484200,10.72395671,10.08557649,0.00081175,21.33085589,-3.09327712
-0.41153045,0.00663509

>  <Name>  (31) 
COC(=O)c1ccc(NO)cc1

>  <RI>  (31) 
0

>  <Rbt.Current_Directory>  (31) 
/home/gse84885/github/im/docking-validation/targets/mpro/expts/jackall/work/Mpro-x0072_0/work/ec/25b0badee36ea0d4973e475deac79c

>  <Rbt.Executable>  (31) 
rbdock ($Id: //depot/dev/client3/rdock/2013.1/src/exe/rbdock.cxx#4 $)

>  <Rbt.Library>  (31) 
libRbt.so (2013.1, Build901 2013/11/27)

>  <Rbt.Parameter_File>  (31) 
/rDock_2013.1/data/scripts/dock.prm

>  <Rbt.Receptor>  (31) 
docking-global.prm

>  <SCORE>  (31) 
-4.1783

>  <SCORE.INTER>  (31) 
-3.81915

>  <SCORE.INTER.CONST>  (31) 
1

>  <SCORE.INTER.POLAR>  (31) 
0

>  <SCORE.INTER.REPUL>  (31) 
0

>  <SCORE.INTER.ROT>  (31) 
3

>  <SCORE.INTER.VDW>  (31) 
-12.2192

>  <SCORE.INTER.norm>  (31) 
-0.318263

>  <SCORE.INTRA>  (31) 
-0.359145

>  <SCORE.INTRA.DIHEDRAL>  (31) 
-1.07102

>  <SCORE.INTRA.DIHEDRAL.0>  (31) 
1.34512

>  <SCORE.INTRA.POLAR>  (31) 
0

>  <SCORE.INTRA.POLAR.0>  (31) 
0

>  <SCORE.INTRA.REPUL>  (31) 
0

>  <SCORE.INTRA.REPUL.0>  (31) 
0

>  <SCORE.INTRA.VDW>  (31) 
0.176368

>  <SCORE.INTRA.VDW.0>  (31) 
1.83539

>  <SCORE.INTRA.norm>  (31) 
-0.0299287

>  <SCORE.RESTR>  (31) 
0

>  <SCORE.RESTR.CAVITY>  (31) 
0

>  <SCORE.RESTR.norm>  (31) 
0

>  <SCORE.SYSTEM>  (31) 
0

>  <SCORE.SYSTEM.CONST>  (31) 
0

>  <SCORE.SYSTEM.DIHEDRAL>  (31) 
0

>  <SCORE.SYSTEM.norm>  (31) 
0

>  <SCORE.heavy>  (31) 
12

>  <SCORE.norm>  (31) 
-0.348191

>  <XChemDeepScore>  (31) 
0.986727

>  <SuCOS_Max_Score>  (31) 
0.27075244909599

>  <SuCOS_Max_FeatureMap_Score>  (31) 
0.00856077809189657

>  <SuCOS_Max_Protrude_Score>  (31) 
0.53294412010008341

>  <SuCOS_Max_Index>  (31) 
5

>  <SuCOS_Cum_Score>  (31) 
1.2048795803140162

>  <SuCOS_Cum_FeatureMap_Score>  (31) 
0.039776504320892414

>  <SuCOS_Cum_Protrude_Score>  (31) 
2.3699826563071396

$$$$
NCCC(CC(=O)O)c1ccc(S(N)(=O)=O)cc1
     RDKit          3D

 18 18  0  0  0  0  0  0  0  0999 V2000
    4.6078    0.4363   18.7266 N   0  0  0  0  0  0  0  0  0  0  0  0
    6.0232    0.1887   18.0425 S   0  0  0  0  0  0  0  0  0  0  0  0
    6.2490   -1.1883   17.6267 O   0  0  0  0  0  0  0  0  0  0  0  0
    6.3786    1.1943   17.0442 O   0  0  0  0  0  0  0  0  0  0  0  0
    7.2553    0.4141   19.3490 C   0  0  0  0  0  0  0  0  0  0  0  0
    7.0375    1.3933   20.3178 C   0  0  0  0  0  0  0  0  0  0  0  0
    7.9903    1.5957   21.3227 C   0  0  0  0  0  0  0  0  0  0  0  0
    9.1496    0.7952   21.4042 C   0  0  0  0  0  0  0  0  0  0  0  0
   10.1578    1.0285   22.5433 C   0  0  1  0  0  0  0  0  0  0  0  0
   10.2573   -0.2643   23.4144 C   0  0  0  0  0  0  0  0  0  0  0  0
   10.8297   -1.5152   22.7330 C   0  0  0  0  0  0  0  0  0  0  0  0
   10.9080   -2.6716   23.6234 N   0  0  0  0  0  0  0  0  0  0  0  0
   11.5680    1.4518   22.0862 C   0  0  0  0  0  0  0  0  0  0  0  0
   12.6398    1.7022   23.1458 C   0  0  0  0  0  0  0  0  0  0  0  0
   12.5804    2.8087   23.7481 O   0  0  0  0  0  0  0  0  0  0  0  0
   13.4032    0.7139   23.3509 O   0  0  0  0  0  0  0  0  0  0  0  0
    9.3385   -0.1778   20.4063 C   0  0  0  0  0  0  0  0  0  0  0  0
    8.4050   -0.3664   19.3820 C   0  0  0  0  0  0  0  0  0  0  0  0
  1  2  1  0
  2  3  2  0
  2  4  2  0
  2  5  1  0
  5  6  2  0
  5 18  1  0
  6  7  1  0
  7  8  2  0
  8  9  1  0
  8 17  1  0
  9 10  1  6
  9 13  1  0
 10 11  1  0
 11 12  1  0
 13 14  1  0
 14 15  2  0
 14 16  1  0
 17 18  2  0
M  END
>  <CHROM.1>  (32) 
-36.14082925,118.46927514,65.01353008,-179.80444170,179.05737216,-78.52592350
8.95685236,0.39953392,20.79508750,-3.08039027,0.71342502,2.96036291

>  <Name>  (32) 
NCCC(CC(=O)O)c1ccc(S(N)(=O)=O)cc1

>  <RI>  (32) 
0

>  <Rbt.Current_Directory>  (32) 
/home/gse84885/github/im/docking-validation/targets/mpro/expts/jackall/work/Mpro-x0072_0/work/ec/dc90a4f628a4aef567c297dd5c6975

>  <Rbt.Executable>  (32) 
rbdock ($Id: //depot/dev/client3/rdock/2013.1/src/exe/rbdock.cxx#4 $)

>  <Rbt.Library>  (32) 
libRbt.so (2013.1, Build901 2013/11/27)

>  <Rbt.Parameter_File>  (32) 
/rDock_2013.1/data/scripts/dock.prm

>  <Rbt.Receptor>  (32) 
docking-global.prm

>  <SCORE>  (32) 
-8.72374

>  <SCORE.INTER>  (32) 
-8.17791

>  <SCORE.INTER.CONST>  (32) 
1

>  <SCORE.INTER.POLAR>  (32) 
0

>  <SCORE.INTER.REPUL>  (32) 
0.0423931

>  <SCORE.INTER.ROT>  (32) 
6

>  <SCORE.INTER.VDW>  (32) 
-19.7899

>  <SCORE.INTER.norm>  (32) 
-0.454328

>  <SCORE.INTRA>  (32) 
-0.545831

>  <SCORE.INTRA.DIHEDRAL>  (32) 
-0.0759229

>  <SCORE.INTRA.DIHEDRAL.0>  (32) 
4.74393

>  <SCORE.INTRA.POLAR>  (32) 
0

>  <SCORE.INTRA.POLAR.0>  (32) 
0

>  <SCORE.INTRA.REPUL>  (32) 
0

>  <SCORE.INTRA.REPUL.0>  (32) 
0

>  <SCORE.INTRA.VDW>  (32) 
-0.50787

>  <SCORE.INTRA.VDW.0>  (32) 
-0.450193

>  <SCORE.INTRA.norm>  (32) 
-0.0303239

>  <SCORE.RESTR>  (32) 
0

>  <SCORE.RESTR.CAVITY>  (32) 
0

>  <SCORE.RESTR.norm>  (32) 
0

>  <SCORE.SYSTEM>  (32) 
0

>  <SCORE.SYSTEM.CONST>  (32) 
0

>  <SCORE.SYSTEM.DIHEDRAL>  (32) 
0

>  <SCORE.SYSTEM.norm>  (32) 
0

>  <SCORE.heavy>  (32) 
18

>  <SCORE.norm>  (32) 
-0.484652

>  <XChemDeepScore>  (32) 
0.986528

>  <SuCOS_Max_Score>  (32) 
0.41854477035185855

>  <SuCOS_Max_FeatureMap_Score>  (32) 
0.19337456872613501

>  <SuCOS_Max_Protrude_Score>  (32) 
0.6437149719775821

>  <SuCOS_Max_Index>  (32) 
6

>  <SuCOS_Cum_Score>  (32) 
1.7918592711520058

>  <SuCOS_Cum_FeatureMap_Score>  (32) 
0.37578684590832351

>  <SuCOS_Cum_Protrude_Score>  (32) 
3.2079316963956881

$$$$
CC(C)(CSCc1ccccc1)CC(N)C(=O)O
     RDKit          3D

 18 18  0  0  0  0  0  0  0  0999 V2000
   10.3657   -0.4225   24.3411 C   0  0  0  0  0  0  0  0  0  0  0  0
   10.0519   -1.6099   23.4051 C   0  0  0  0  0  0  0  0  0  0  0  0
   10.2635   -2.9090   24.2077 C   0  0  0  0  0  0  0  0  0  0  0  0
    8.5422   -1.4980   23.0030 C   0  0  0  0  0  0  0  0  0  0  0  0
    7.9452   -2.8785   21.9616 S   0  0  0  0  0  0  0  0  0  0  0  0
    6.3130   -2.2188   21.5003 C   0  0  0  0  0  0  0  0  0  0  0  0
    6.4057   -1.3588   20.2649 C   0  0  0  0  0  0  0  0  0  0  0  0
    7.3158   -0.2914   20.2023 C   0  0  0  0  0  0  0  0  0  0  0  0
    7.3855    0.5163   19.0649 C   0  0  0  0  0  0  0  0  0  0  0  0
    6.5472    0.2686   17.9814 C   0  0  0  0  0  0  0  0  0  0  0  0
    5.6335   -0.7818   18.0346 C   0  0  0  0  0  0  0  0  0  0  0  0
    5.5587   -1.5893   19.1714 C   0  0  0  0  0  0  0  0  0  0  0  0
   10.9489   -1.5222   22.1239 C   0  0  0  0  0  0  0  0  0  0  0  0
   12.4678   -1.3861   22.2783 C   0  0  1  0  0  0  0  0  0  0  0  0
   13.1877   -1.7723   21.0031 N   0  0  0  0  0  0  0  0  0  0  0  0
   12.9460    0.0595   22.6438 C   0  0  0  0  0  0  0  0  0  0  0  0
   12.3378    1.0317   22.1532 O   0  0  0  0  0  0  0  0  0  0  0  0
   13.9772   -0.0262   23.3986 O   0  0  0  0  0  0  0  0  0  0  0  0
  1  2  1  0
  2  3  1  0
  2  4  1  0
  2 13  1  0
  4  5  1  0
  5  6  1  0
  6  7  1  0
  7  8  2  0
  7 12  1  0
  8  9  1  0
  9 10  2  0
 10 11  1  0
 11 12  2  0
 13 14  1  0
 14 15  1  6
 14 16  1  0
 16 17  2  0
 16 18  1  0
M  END
>  <CHROM.1>  (33) 
-176.71787314,52.86948328,-170.51246784,87.33520885,-53.49403762,161.13812142
-35.92419438,9.34476556,-1.14247486,21.59082523,0.37637170,0.35946296,2.20124871

>  <Name>  (33) 
CC(C)(CSCc1ccccc1)CC(N)C(=O)O

>  <RI>  (33) 
0

>  <Rbt.Current_Directory>  (33) 
/home/gse84885/github/im/docking-validation/targets/mpro/expts/jackall/work/Mpro-x0072_0/work/8b/bed60ac8a431146f4f8446a6df7804

>  <Rbt.Executable>  (33) 
rbdock ($Id: //depot/dev/client3/rdock/2013.1/src/exe/rbdock.cxx#4 $)

>  <Rbt.Library>  (33) 
libRbt.so (2013.1, Build901 2013/11/27)

>  <Rbt.Parameter_File>  (33) 
/rDock_2013.1/data/scripts/dock.prm

>  <Rbt.Receptor>  (33) 
docking-global.prm

>  <SCORE>  (33) 
-8.09386

>  <SCORE.INTER>  (33) 
-8.35254

>  <SCORE.INTER.CONST>  (33) 
1

>  <SCORE.INTER.POLAR>  (33) 
0

>  <SCORE.INTER.REPUL>  (33) 
0

>  <SCORE.INTER.ROT>  (33) 
7

>  <SCORE.INTER.VDW>  (33) 
-20.7525

>  <SCORE.INTER.norm>  (33) 
-0.46403

>  <SCORE.INTRA>  (33) 
0.258678

>  <SCORE.INTRA.DIHEDRAL>  (33) 
2.64126

>  <SCORE.INTRA.DIHEDRAL.0>  (33) 
3.0211

>  <SCORE.INTRA.POLAR>  (33) 
0

>  <SCORE.INTRA.POLAR.0>  (33) 
0

>  <SCORE.INTRA.REPUL>  (33) 
0

>  <SCORE.INTRA.REPUL.0>  (33) 
0

>  <SCORE.INTRA.VDW>  (33) 
-1.06195

>  <SCORE.INTRA.VDW.0>  (33) 
0.0767175

>  <SCORE.INTRA.norm>  (33) 
0.014371

>  <SCORE.RESTR>  (33) 
0

>  <SCORE.RESTR.CAVITY>  (33) 
0

>  <SCORE.RESTR.norm>  (33) 
0

>  <SCORE.SYSTEM>  (33) 
0

>  <SCORE.SYSTEM.CONST>  (33) 
0

>  <SCORE.SYSTEM.DIHEDRAL>  (33) 
0

>  <SCORE.SYSTEM.norm>  (33) 
0

>  <SCORE.heavy>  (33) 
18

>  <SCORE.norm>  (33) 
-0.449659

>  <XChemDeepScore>  (33) 
0.985718

>  <SuCOS_Max_Score>  (33) 
0.39622335252843549

>  <SuCOS_Max_FeatureMap_Score>  (33) 
0.24180040658448557

>  <SuCOS_Max_Protrude_Score>  (33) 
0.55064629847238544

>  <SuCOS_Max_Index>  (33) 
0

>  <SuCOS_Cum_Score>  (33) 
2.0119033538990228

>  <SuCOS_Cum_FeatureMap_Score>  (33) 
0.46901685166896245

>  <SuCOS_Cum_Protrude_Score>  (33) 
3.5547898561290832

$$$$
C[C@H](OCc1ccccc1)[C@@H](N)C(=O)Cc1cccnc1
     RDKit          3D

 21 22  0  0  0  0  0  0  0  0999 V2000
   11.6749   -1.8598   22.3810 C   0  0  0  0  0  0  0  0  0  0  0  0
   10.5771   -0.9644   22.9548 C   0  0  2  0  0  0  0  0  0  0  0  0
    9.7097   -0.4413   21.9189 O   0  0  0  0  0  0  0  0  0  0  0  0
    8.8572   -1.4285   21.3118 C   0  0  0  0  0  0  0  0  0  0  0  0
    7.8928   -0.7673   20.3649 C   0  0  0  0  0  0  0  0  0  0  0  0
    8.3559   -0.1470   19.1937 C   0  0  0  0  0  0  0  0  0  0  0  0
    7.4551    0.3801   18.2655 C   0  0  0  0  0  0  0  0  0  0  0  0
    6.0843    0.2920   18.4966 C   0  0  0  0  0  0  0  0  0  0  0  0
    5.6124   -0.3232   19.6538 C   0  0  0  0  0  0  0  0  0  0  0  0
    6.5104   -0.8522   20.5830 C   0  0  0  0  0  0  0  0  0  0  0  0
   11.1276    0.3004   23.6763 C   0  0  1  0  0  0  0  0  0  0  0  0
   11.6559   -0.1902   25.0169 N   0  0  0  0  0  0  0  0  0  0  0  0
   12.1820    1.0879   22.8792 C   0  0  0  0  0  0  0  0  0  0  0  0
   13.3784    0.7996   22.9046 O   0  0  0  0  0  0  0  0  0  0  0  0
   11.7182    2.2709   22.0454 C   0  0  0  0  0  0  0  0  0  0  0  0
   12.3665    3.5961   22.3859 C   0  0  0  0  0  0  0  0  0  0  0  0
   13.0318    4.3246   21.3914 C   0  0  0  0  0  0  0  0  0  0  0  0
   13.5595    5.5835   21.6711 C   0  0  0  0  0  0  0  0  0  0  0  0
   13.4169    6.1083   22.9474 C   0  0  0  0  0  0  0  0  0  0  0  0
   12.7758    5.4000   23.8875 N   0  0  0  0  0  0  0  0  0  0  0  0
   12.2450    4.1859   23.6514 C   0  0  0  0  0  0  0  0  0  0  0  0
  2 11  1  0
  2  3  1  0
  2  1  1  6
  3  4  1  0
  4  5  1  0
  5  6  2  0
  5 10  1  0
  6  7  1  0
  7  8  2  0
  8  9  1  0
  9 10  2  0
 11 12  1  1
 11 13  1  0
 13 14  2  0
 13 15  1  0
 15 16  1  0
 16 17  2  0
 16 21  1  0
 17 18  1  0
 18 19  2  0
 19 20  1  0
 20 21  2  0
M  END
>  <CHROM.1>  (34) 
-75.99475563,70.16486967,173.69297312,66.60916744,-85.44475476,122.05484830
123.82872046,10.52314206,1.25912155,21.82385210,-2.71462393,-0.68104191,-0.37799224

>  <Name>  (34) 
C[C@H](OCc1ccccc1)[C@@H](N)C(=O)Cc1cccnc1

>  <RI>  (34) 
0

>  <Rbt.Current_Directory>  (34) 
/home/gse84885/github/im/docking-validation/targets/mpro/expts/jackall/work/Mpro-x0072_0/work/1a/2694b1304f80441ea16ba71352daa7

>  <Rbt.Executable>  (34) 
rbdock ($Id: //depot/dev/client3/rdock/2013.1/src/exe/rbdock.cxx#4 $)

>  <Rbt.Library>  (34) 
libRbt.so (2013.1, Build901 2013/11/27)

>  <Rbt.Parameter_File>  (34) 
/rDock_2013.1/data/scripts/dock.prm

>  <Rbt.Receptor>  (34) 
docking-global.prm

>  <SCORE>  (34) 
-11.8187

>  <SCORE.INTER>  (34) 
-11.3293

>  <SCORE.INTER.CONST>  (34) 
1

>  <SCORE.INTER.POLAR>  (34) 
0

>  <SCORE.INTER.REPUL>  (34) 
0

>  <SCORE.INTER.ROT>  (34) 
7

>  <SCORE.INTER.VDW>  (34) 
-23.7293

>  <SCORE.INTER.norm>  (34) 
-0.539488

>  <SCORE.INTRA>  (34) 
-0.489394

>  <SCORE.INTRA.DIHEDRAL>  (34) 
2.32861

>  <SCORE.INTRA.DIHEDRAL.0>  (34) 
3.81471

>  <SCORE.INTRA.POLAR>  (34) 
0

>  <SCORE.INTRA.POLAR.0>  (34) 
0

>  <SCORE.INTRA.REPUL>  (34) 
0

>  <SCORE.INTRA.REPUL.0>  (34) 
0

>  <SCORE.INTRA.VDW>  (34) 
-1.6537

>  <SCORE.INTRA.VDW.0>  (34) 
0.794827

>  <SCORE.INTRA.norm>  (34) 
-0.0233045

>  <SCORE.RESTR>  (34) 
0

>  <SCORE.RESTR.CAVITY>  (34) 
0

>  <SCORE.RESTR.norm>  (34) 
0

>  <SCORE.SYSTEM>  (34) 
0

>  <SCORE.SYSTEM.CONST>  (34) 
0

>  <SCORE.SYSTEM.DIHEDRAL>  (34) 
0

>  <SCORE.SYSTEM.norm>  (34) 
0

>  <SCORE.heavy>  (34) 
21

>  <SCORE.norm>  (34) 
-0.562793

>  <XChemDeepScore>  (34) 
0.985273

>  <SuCOS_Max_Score>  (34) 
0.37802903714730818

>  <SuCOS_Max_FeatureMap_Score>  (34) 
0.042247758154849269

>  <SuCOS_Max_Protrude_Score>  (34) 
0.71381031613976709

>  <SuCOS_Max_Index>  (34) 
5

>  <SuCOS_Cum_Score>  (34) 
2.038744474290592

>  <SuCOS_Cum_FeatureMap_Score>  (34) 
0.22677705451623389

>  <SuCOS_Cum_Protrude_Score>  (34) 
3.8507118940649505

$$$$
O=C(O)C=C(CCc1ccccc1)c1ccncc1
     RDKit          3D

 19 20  0  0  0  0  0  0  0  0999 V2000
   10.5649   -4.2067   24.9213 O   0  0  0  0  0  0  0  0  0  0  0  0
    9.9919   -3.5942   23.9811 C   0  0  0  0  0  0  0  0  0  0  0  0
    9.0182   -3.9263   23.2555 O   0  0  0  0  0  0  0  0  0  0  0  0
   10.6198   -2.2268   23.6884 C   0  0  0  0  0  0  0  0  0  0  0  0
   10.4206   -1.3558   22.6825 C   0  0  0  0  0  0  0  0  0  0  0  0
    9.4767   -1.4735   21.5064 C   0  0  0  0  0  0  0  0  0  0  0  0
    8.2630   -0.5377   21.5852 C   0  0  0  0  0  0  0  0  0  0  0  0
    7.3901   -0.6288   20.3539 C   0  0  0  0  0  0  0  0  0  0  0  0
    6.2736   -1.4760   20.3534 C   0  0  0  0  0  0  0  0  0  0  0  0
    5.4607   -1.5764   19.2232 C   0  0  0  0  0  0  0  0  0  0  0  0
    5.7599   -0.8360   18.0811 C   0  0  0  0  0  0  0  0  0  0  0  0
    6.8686    0.0097   18.0709 C   0  0  0  0  0  0  0  0  0  0  0  0
    7.6817    0.1131   19.2020 C   0  0  0  0  0  0  0  0  0  0  0  0
   11.2604   -0.1544   22.7359 C   0  0  0  0  0  0  0  0  0  0  0  0
   12.1107    0.0516   23.8213 C   0  0  0  0  0  0  0  0  0  0  0  0
   12.7959    1.2512   23.9139 C   0  0  0  0  0  0  0  0  0  0  0  0
   12.6349    2.1893   22.9662 N   0  0  0  0  0  0  0  0  0  0  0  0
   11.8238    2.0159   21.9092 C   0  0  0  0  0  0  0  0  0  0  0  0
   11.1145    0.8365   21.7673 C   0  0  0  0  0  0  0  0  0  0  0  0
  1  2  2  0
  2  3  1  0
  2  4  1  0
  4  5  2  0
  5  6  1  0
  5 14  1  0
  6  7  1  0
  7  8  1  0
  8  9  2  0
  8 13  1  0
  9 10  1  0
 10 11  2  0
 11 12  1  0
 12 13  2  0
 14 15  2  0
 14 19  1  0
 15 16  1  0
 16 17  2  0
 17 18  1  0
 18 19  2  0
M  END
>  <CHROM.1>  (35) 
170.58109682,107.95759611,-4.19172314,176.63731838,95.26104046,9.45982033
-0.87378995,21.83705063,0.30656182,0.64410892,2.55828371

>  <Name>  (35) 
O=C(O)C=C(CCc1ccccc1)c1ccncc1

>  <RI>  (35) 
0

>  <Rbt.Current_Directory>  (35) 
/home/gse84885/github/im/docking-validation/targets/mpro/expts/jackall/work/Mpro-x0072_0/work/a9/4bbf3f14b749c2ebf10bc96299ec63

>  <Rbt.Executable>  (35) 
rbdock ($Id: //depot/dev/client3/rdock/2013.1/src/exe/rbdock.cxx#4 $)

>  <Rbt.Library>  (35) 
libRbt.so (2013.1, Build901 2013/11/27)

>  <Rbt.Parameter_File>  (35) 
/rDock_2013.1/data/scripts/dock.prm

>  <Rbt.Receptor>  (35) 
docking-global.prm

>  <SCORE>  (35) 
-14.6406

>  <SCORE.INTER>  (35) 
-10.5789

>  <SCORE.INTER.CONST>  (35) 
1

>  <SCORE.INTER.POLAR>  (35) 
0

>  <SCORE.INTER.REPUL>  (35) 
0.000335933

>  <SCORE.INTER.ROT>  (35) 
5

>  <SCORE.INTER.VDW>  (35) 
-20.9806

>  <SCORE.INTER.norm>  (35) 
-0.556787

>  <SCORE.INTRA>  (35) 
-4.0617

>  <SCORE.INTRA.DIHEDRAL>  (35) 
-14.8334

>  <SCORE.INTRA.DIHEDRAL.0>  (35) 
16.2206

>  <SCORE.INTRA.POLAR>  (35) 
0

>  <SCORE.INTRA.POLAR.0>  (35) 
0

>  <SCORE.INTRA.REPUL>  (35) 
0

>  <SCORE.INTRA.REPUL.0>  (35) 
0

>  <SCORE.INTRA.VDW>  (35) 
3.35498

>  <SCORE.INTRA.VDW.0>  (35) 
-1.70978

>  <SCORE.INTRA.norm>  (35) 
-0.213774

>  <SCORE.RESTR>  (35) 
0

>  <SCORE.RESTR.CAVITY>  (35) 
0

>  <SCORE.RESTR.norm>  (35) 
0

>  <SCORE.SYSTEM>  (35) 
0

>  <SCORE.SYSTEM.CONST>  (35) 
0

>  <SCORE.SYSTEM.DIHEDRAL>  (35) 
0

>  <SCORE.SYSTEM.norm>  (35) 
0

>  <SCORE.heavy>  (35) 
19

>  <SCORE.norm>  (35) 
-0.77056

>  <XChemDeepScore>  (35) 
0.984851

>  <SuCOS_Max_Score>  (35) 
0.38533380556563984

>  <SuCOS_Max_FeatureMap_Score>  (35) 
0.20093050497033252

>  <SuCOS_Max_Protrude_Score>  (35) 
0.56973710616094719

>  <SuCOS_Max_Index>  (35) 
6

>  <SuCOS_Cum_Score>  (35) 
1.8993537357779209

>  <SuCOS_Cum_FeatureMap_Score>  (35) 
0.66293176079642324

>  <SuCOS_Cum_Protrude_Score>  (35) 
3.1357757107594177

$$$$
O=P(O)(O)c1c[nH]c2ccc(F)cc12
     RDKit          3D

 14 15  0  0  0  0  0  0  0  0999 V2000
   12.3547    5.6921   22.7107 O   0  0  0  0  0  0  0  0  0  0  0  0
   12.3798    4.1443   22.7445 P   0  0  0  0  0  0  0  0  0  0  0  0
   10.9570    3.9253   23.2886 O   0  0  0  0  0  0  0  0  0  0  0  0
   12.7272    3.8835   21.2672 O   0  0  0  0  0  0  0  0  0  0  0  0
   12.4095    2.3150   22.7845 C   0  0  0  0  0  0  0  0  0  0  0  0
   13.3681    1.4924   23.3378 C   0  0  0  0  0  0  0  0  0  0  0  0
   13.1204    0.1802   23.1212 N   0  0  0  0  0  0  0  0  0  0  0  0
   11.9613    0.1400   22.4440 C   0  0  0  0  0  0  0  0  0  0  0  0
   11.2201   -0.9660   21.9950 C   0  0  0  0  0  0  0  0  0  0  0  0
   10.0563   -0.7172   21.2625 C   0  0  0  0  0  0  0  0  0  0  0  0
    9.6445    0.5913   20.9819 C   0  0  0  0  0  0  0  0  0  0  0  0
    8.5229    0.7655   20.2677 F   0  0  0  0  0  0  0  0  0  0  0  0
   10.3573    1.7027   21.4221 C   0  0  0  0  0  0  0  0  0  0  0  0
   11.5108    1.4416   22.1664 C   0  0  0  0  0  0  0  0  0  0  0  0
  1  2  2  0
  2  3  1  0
  2  4  1  0
  2  5  1  0
  5  6  2  0
  5 14  1  0
  6  7  1  0
  7  8  1  0
  8  9  1  0
  8 14  2  0
  9 10  2  0
 10 11  1  0
 11 12  1  0
 11 13  2  0
 13 14  1  0
M  END
>  <CHROM.1>  (36) 
68.21063400,11.49681013,2.05107877,22.14555820,1.03057481,-0.54069375,0.00842670

>  <Name>  (36) 
O=P(O)(O)c1c[nH]c2ccc(F)cc12

>  <RI>  (36) 
0

>  <Rbt.Current_Directory>  (36) 
/home/gse84885/github/im/docking-validation/targets/mpro/expts/jackall/work/Mpro-x0072_0/work/16/c8bf70f3c7a7a0fe0ac918e9b89549

>  <Rbt.Executable>  (36) 
rbdock ($Id: //depot/dev/client3/rdock/2013.1/src/exe/rbdock.cxx#4 $)

>  <Rbt.Library>  (36) 
libRbt.so (2013.1, Build901 2013/11/27)

>  <Rbt.Parameter_File>  (36) 
/rDock_2013.1/data/scripts/dock.prm

>  <Rbt.Receptor>  (36) 
docking-global.prm

>  <SCORE>  (36) 
nan

>  <SCORE.INTER>  (36) 
-8.91907

>  <SCORE.INTER.CONST>  (36) 
1

>  <SCORE.INTER.POLAR>  (36) 
0

>  <SCORE.INTER.REPUL>  (36) 
0

>  <SCORE.INTER.ROT>  (36) 
1

>  <SCORE.INTER.VDW>  (36) 
-15.3191

>  <SCORE.INTER.norm>  (36) 
-0.637076

>  <SCORE.INTRA>  (36) 
nan

>  <SCORE.INTRA.DIHEDRAL>  (36) 
nan

>  <SCORE.INTRA.DIHEDRAL.0>  (36) 
nan

>  <SCORE.INTRA.POLAR>  (36) 
0

>  <SCORE.INTRA.POLAR.0>  (36) 
0

>  <SCORE.INTRA.REPUL>  (36) 
0

>  <SCORE.INTRA.REPUL.0>  (36) 
0

>  <SCORE.INTRA.VDW>  (36) 
-2.19825

>  <SCORE.INTRA.VDW.0>  (36) 
1.65091

>  <SCORE.INTRA.norm>  (36) 
nan

>  <SCORE.RESTR>  (36) 
0

>  <SCORE.RESTR.CAVITY>  (36) 
0

>  <SCORE.RESTR.norm>  (36) 
0

>  <SCORE.SYSTEM>  (36) 
0

>  <SCORE.SYSTEM.CONST>  (36) 
0

>  <SCORE.SYSTEM.DIHEDRAL>  (36) 
0

>  <SCORE.SYSTEM.norm>  (36) 
0

>  <SCORE.heavy>  (36) 
14

>  <SCORE.norm>  (36) 
nan

>  <XChemDeepScore>  (36) 
0.984714

>  <SuCOS_Max_Score>  (36) 
0.30394623564543244

>  <SuCOS_Max_FeatureMap_Score>  (36) 
0.13867759525780704

>  <SuCOS_Max_Protrude_Score>  (36) 
0.46921487603305789

>  <SuCOS_Max_Index>  (36) 
1

>  <SuCOS_Cum_Score>  (36) 
1.5446593209344652

>  <SuCOS_Cum_FeatureMap_Score>  (36) 
0.40165955793112462

>  <SuCOS_Cum_Protrude_Score>  (36) 
2.6876590839378061

$$$$
CC(CCc1ccncc1)C(=O)c1ccccc1
     RDKit          3D

 18 19  0  0  0  0  0  0  0  0999 V2000
   13.0450   -1.6453   21.7099 C   0  0  0  0  0  0  0  0  0  0  0  0
   11.5261   -1.7741   21.8645 C   0  0  1  0  0  0  0  0  0  0  0  0
   11.2359   -2.3142   23.2859 C   0  0  0  0  0  0  0  0  0  0  0  0
    9.8041   -2.8152   23.5124 C   0  0  0  0  0  0  0  0  0  0  0  0
    9.7018   -3.5665   24.8268 C   0  0  0  0  0  0  0  0  0  0  0  0
   10.2607   -4.8419   24.9650 C   0  0  0  0  0  0  0  0  0  0  0  0
   10.1114   -5.5316   26.1616 C   0  0  0  0  0  0  0  0  0  0  0  0
    9.4332   -4.9735   27.1766 N   0  0  0  0  0  0  0  0  0  0  0  0
    8.8840   -3.7514   27.0847 C   0  0  0  0  0  0  0  0  0  0  0  0
    9.0031   -3.0224   25.9083 C   0  0  0  0  0  0  0  0  0  0  0  0
   10.8598   -0.4170   21.6337 C   0  0  0  0  0  0  0  0  0  0  0  0
    9.8949   -0.3027   20.8778 O   0  0  0  0  0  0  0  0  0  0  0  0
   11.4134    0.8065   22.2991 C   0  0  0  0  0  0  0  0  0  0  0  0
   12.1474    0.6312   23.4820 C   0  0  0  0  0  0  0  0  0  0  0  0
   12.7025    1.7324   24.1403 C   0  0  0  0  0  0  0  0  0  0  0  0
   12.5523    3.0105   23.6089 C   0  0  0  0  0  0  0  0  0  0  0  0
   11.8294    3.1933   22.4320 C   0  0  0  0  0  0  0  0  0  0  0  0
   11.2456    2.0969   21.7872 C   0  0  0  0  0  0  0  0  0  0  0  0
  2  1  1  1
  2  3  1  0
  2 11  1  0
  3  4  1  0
  4  5  1  0
  5  6  2  0
  5 10  1  0
  6  7  1  0
  7  8  2  0
  8  9  1  0
  9 10  2  0
 11 12  2  0
 11 13  1  0
 13 14  2  0
 13 18  1  0
 14 15  1  0
 15 16  2  0
 16 17  1  0
 17 18  2  0
M  END
>  <CHROM.1>  (37) 
-166.35427769,131.24905240,168.77963748,-72.62573434,-24.84690312,10.86945950
-1.32397037,23.67827404,0.04796471,-1.26107542,-2.05937223

>  <Name>  (37) 
CC(CCc1ccncc1)C(=O)c1ccccc1

>  <RI>  (37) 
0

>  <Rbt.Current_Directory>  (37) 
/home/gse84885/github/im/docking-validation/targets/mpro/expts/jackall/work/Mpro-x0072_0/work/24/beae83bac5ff6bd52cadb7ae4364da

>  <Rbt.Executable>  (37) 
rbdock ($Id: //depot/dev/client3/rdock/2013.1/src/exe/rbdock.cxx#4 $)

>  <Rbt.Library>  (37) 
libRbt.so (2013.1, Build901 2013/11/27)

>  <Rbt.Parameter_File>  (37) 
/rDock_2013.1/data/scripts/dock.prm

>  <Rbt.Receptor>  (37) 
docking-global.prm

>  <SCORE>  (37) 
-10.3953

>  <SCORE.INTER>  (37) 
-11.3271

>  <SCORE.INTER.CONST>  (37) 
1

>  <SCORE.INTER.POLAR>  (37) 
0

>  <SCORE.INTER.REPUL>  (37) 
0

>  <SCORE.INTER.ROT>  (37) 
5

>  <SCORE.INTER.VDW>  (37) 
-21.7271

>  <SCORE.INTER.norm>  (37) 
-0.629281

>  <SCORE.INTRA>  (37) 
0.931718

>  <SCORE.INTRA.DIHEDRAL>  (37) 
-0.248963

>  <SCORE.INTRA.DIHEDRAL.0>  (37) 
5.13025

>  <SCORE.INTRA.POLAR>  (37) 
0

>  <SCORE.INTRA.POLAR.0>  (37) 
0

>  <SCORE.INTRA.REPUL>  (37) 
0

>  <SCORE.INTRA.REPUL.0>  (37) 
0

>  <SCORE.INTRA.VDW>  (37) 
1.0562

>  <SCORE.INTRA.VDW.0>  (37) 
-0.701442

>  <SCORE.INTRA.norm>  (37) 
0.0517621

>  <SCORE.RESTR>  (37) 
0

>  <SCORE.RESTR.CAVITY>  (37) 
0

>  <SCORE.RESTR.norm>  (37) 
0

>  <SCORE.SYSTEM>  (37) 
0

>  <SCORE.SYSTEM.CONST>  (37) 
0

>  <SCORE.SYSTEM.DIHEDRAL>  (37) 
0

>  <SCORE.SYSTEM.norm>  (37) 
0

>  <SCORE.heavy>  (37) 
18

>  <SCORE.norm>  (37) 
-0.577519

>  <XChemDeepScore>  (37) 
0.984670

>  <SuCOS_Max_Score>  (37) 
0.42123567817507829

>  <SuCOS_Max_FeatureMap_Score>  (37) 
0.098443253305660061

>  <SuCOS_Max_Protrude_Score>  (37) 
0.74402810304449651

>  <SuCOS_Max_Index>  (37) 
0

>  <SuCOS_Cum_Score>  (37) 
2.0291658090570892

>  <SuCOS_Cum_FeatureMap_Score>  (37) 
0.65801601666756504

>  <SuCOS_Cum_Protrude_Score>  (37) 
3.4003156014466138

$$$$
NS(=O)(=O)c1ccc(CC(F)(F)C(=O)O)cc1
     RDKit          3D

 17 17  0  0  0  0  0  0  0  0999 V2000
   13.9306   -0.3173   22.4043 N   0  0  0  0  0  0  0  0  0  0  0  0
   12.8416    0.6924   23.1949 S   0  0  0  0  0  0  0  0  0  0  0  0
   12.7991    0.2564   24.5693 O   0  0  0  0  0  0  0  0  0  0  0  0
   13.2493    2.0314   22.8175 O   0  0  0  0  0  0  0  0  0  0  0  0
   11.3174    0.2920   22.4073 C   0  0  0  0  0  0  0  0  0  0  0  0
   10.9562   -1.0495   22.2457 C   0  0  0  0  0  0  0  0  0  0  0  0
    9.7687   -1.3614   21.5812 C   0  0  0  0  0  0  0  0  0  0  0  0
    8.9327   -0.3485   21.0832 C   0  0  0  0  0  0  0  0  0  0  0  0
    7.6589   -0.7095   20.3350 C   0  0  0  0  0  0  0  0  0  0  0  0
    7.5511   -0.1599   18.9150 C   0  0  0  0  0  0  0  0  0  0  0  0
    7.5460    1.2077   18.9538 F   0  0  0  0  0  0  0  0  0  0  0  0
    8.6479   -0.5251   18.1838 F   0  0  0  0  0  0  0  0  0  0  0  0
    6.2682   -0.6479   18.1583 C   0  0  0  0  0  0  0  0  0  0  0  0
    6.3964   -1.7113   17.4703 O   0  0  0  0  0  0  0  0  0  0  0  0
    5.2231    0.0580   18.2915 O   0  0  0  0  0  0  0  0  0  0  0  0
    9.3208    0.9903   21.2482 C   0  0  0  0  0  0  0  0  0  0  0  0
   10.5050    1.3104   21.9124 C   0  0  0  0  0  0  0  0  0  0  0  0
  1  2  1  0
  2  3  2  0
  2  4  2  0
  2  5  1  0
  5  6  2  0
  5 17  1  0
  6  7  1  0
  7  8  2  0
  8  9  1  0
  8 16  1  0
  9 10  1  0
 10 11  1  0
 10 12  1  0
 10 13  1  0
 13 14  2  0
 13 15  1  0
 16 17  2  0
M  END
>  <CHROM.1>  (38) 
48.05784101,-122.13305670,-62.54093330,-91.50458181,9.76977140,0.07286526
20.89450096,-0.17346241,0.65881447,-3.07072388

>  <Name>  (38) 
NS(=O)(=O)c1ccc(CC(F)(F)C(=O)O)cc1

>  <RI>  (38) 
0

>  <Rbt.Current_Directory>  (38) 
/home/gse84885/github/im/docking-validation/targets/mpro/expts/jackall/work/Mpro-x0072_0/work/f1/fbb93fb3422c8e550b9c0a6c70ef34

>  <Rbt.Executable>  (38) 
rbdock ($Id: //depot/dev/client3/rdock/2013.1/src/exe/rbdock.cxx#4 $)

>  <Rbt.Library>  (38) 
libRbt.so (2013.1, Build901 2013/11/27)

>  <Rbt.Parameter_File>  (38) 
/rDock_2013.1/data/scripts/dock.prm

>  <Rbt.Receptor>  (38) 
docking-global.prm

>  <SCORE>  (38) 
-9.01557

>  <SCORE.INTER>  (38) 
-8.45029

>  <SCORE.INTER.CONST>  (38) 
1

>  <SCORE.INTER.POLAR>  (38) 
0

>  <SCORE.INTER.REPUL>  (38) 
0.0201585

>  <SCORE.INTER.ROT>  (38) 
4

>  <SCORE.INTER.VDW>  (38) 
-17.9511

>  <SCORE.INTER.norm>  (38) 
-0.497076

>  <SCORE.INTRA>  (38) 
-0.565283

>  <SCORE.INTRA.DIHEDRAL>  (38) 
0.0766323

>  <SCORE.INTRA.DIHEDRAL.0>  (38) 
3.79945

>  <SCORE.INTRA.POLAR>  (38) 
0

>  <SCORE.INTRA.POLAR.0>  (38) 
0

>  <SCORE.INTRA.REPUL>  (38) 
0

>  <SCORE.INTRA.REPUL.0>  (38) 
0

>  <SCORE.INTRA.VDW>  (38) 
-0.603599

>  <SCORE.INTRA.VDW.0>  (38) 
-1.11534

>  <SCORE.INTRA.norm>  (38) 
-0.0332519

>  <SCORE.RESTR>  (38) 
0

>  <SCORE.RESTR.CAVITY>  (38) 
0

>  <SCORE.RESTR.norm>  (38) 
0

>  <SCORE.SYSTEM>  (38) 
0

>  <SCORE.SYSTEM.CONST>  (38) 
0

>  <SCORE.SYSTEM.DIHEDRAL>  (38) 
0

>  <SCORE.SYSTEM.norm>  (38) 
0

>  <SCORE.heavy>  (38) 
17

>  <SCORE.norm>  (38) 
-0.530328

>  <XChemDeepScore>  (38) 
0.984549

>  <SuCOS_Max_Score>  (38) 
0.35116168821437987

>  <SuCOS_Max_FeatureMap_Score>  (38) 
0.011569523867327002

>  <SuCOS_Max_Protrude_Score>  (38) 
0.69075385256143274

>  <SuCOS_Max_Index>  (38) 
5

>  <SuCOS_Cum_Score>  (38) 
1.6479213239277466

>  <SuCOS_Cum_FeatureMap_Score>  (38) 
0.24846734694031408

>  <SuCOS_Cum_Protrude_Score>  (38) 
3.0473753009151796

$$$$
CC(O)(COCc1ccccc1)C(=O)Cc1cccnc1
     RDKit          3D

 21 22  0  0  0  0  0  0  0  0999 V2000
   12.3702   -0.8274   22.2602 C   0  0  0  0  0  0  0  0  0  0  0  0
   12.5616    0.3446   23.2227 C   0  0  1  0  0  0  0  0  0  0  0  0
   13.9658    0.4549   23.5126 O   0  0  0  0  0  0  0  0  0  0  0  0
   12.0746    1.6620   22.5921 C   0  0  0  0  0  0  0  0  0  0  0  0
   12.2870    2.7506   23.4868 O   0  0  0  0  0  0  0  0  0  0  0  0
   11.6776    3.9473   23.0182 C   0  0  0  0  0  0  0  0  0  0  0  0
   11.6513    4.9494   24.1409 C   0  0  0  0  0  0  0  0  0  0  0  0
   12.8333    5.3130   24.7974 C   0  0  0  0  0  0  0  0  0  0  0  0
   12.8144    6.2516   25.8296 C   0  0  0  0  0  0  0  0  0  0  0  0
   11.6090    6.8389   26.2157 C   0  0  0  0  0  0  0  0  0  0  0  0
   10.4274    6.4831   25.5720 C   0  0  0  0  0  0  0  0  0  0  0  0
   10.4431    5.5462   24.5421 C   0  0  0  0  0  0  0  0  0  0  0  0
   11.8128    0.1058   24.5531 C   0  0  0  0  0  0  0  0  0  0  0  0
   12.3831    0.1041   25.6495 O   0  0  0  0  0  0  0  0  0  0  0  0
   10.3279   -0.1902   24.4779 C   0  0  0  0  0  0  0  0  0  0  0  0
    9.9630   -1.5834   24.9124 C   0  0  0  0  0  0  0  0  0  0  0  0
   10.3929   -2.7047   24.2000 C   0  0  0  0  0  0  0  0  0  0  0  0
   10.1242   -3.9791   24.6954 C   0  0  0  0  0  0  0  0  0  0  0  0
    9.4205   -4.0854   25.8826 C   0  0  0  0  0  0  0  0  0  0  0  0
    8.9621   -3.0275   26.5826 N   0  0  0  0  0  0  0  0  0  0  0  0
    9.2389   -1.8030   26.0823 C   0  0  0  0  0  0  0  0  0  0  0  0
  2  1  1  6
  2  3  1  0
  2  4  1  0
  2 13  1  0
  4  5  1  0
  5  6  1  0
  6  7  1  0
  7  8  2  0
  7 12  1  0
  8  9  1  0
  9 10  2  0
 10 11  1  0
 11 12  2  0
 13 14  2  0
 13 15  1  0
 15 16  1  0
 16 17  2  0
 16 21  1  0
 17 18  1  0
 18 19  2  0
 19 20  1  0
 20 21  2  0
M  END
>  <CHROM.1>  (39) 
-178.65222516,122.31871486,-171.61123467,166.51509880,55.56092183,113.43644017
-64.96667215,11.34882453,1.23968814,24.55351841,-1.85222495,0.79429543,0.17930658

>  <Name>  (39) 
CC(O)(COCc1ccccc1)C(=O)Cc1cccnc1

>  <RI>  (39) 
0

>  <Rbt.Current_Directory>  (39) 
/home/gse84885/github/im/docking-validation/targets/mpro/expts/jackall/work/Mpro-x0072_0/work/d3/8112d315cfc5ac65f19a35bbc9e78d

>  <Rbt.Executable>  (39) 
rbdock ($Id: //depot/dev/client3/rdock/2013.1/src/exe/rbdock.cxx#4 $)

>  <Rbt.Library>  (39) 
libRbt.so (2013.1, Build901 2013/11/27)

>  <Rbt.Parameter_File>  (39) 
/rDock_2013.1/data/scripts/dock.prm

>  <Rbt.Receptor>  (39) 
docking-global.prm

>  <SCORE>  (39) 
-9.18351

>  <SCORE.INTER>  (39) 
-9.07084

>  <SCORE.INTER.CONST>  (39) 
1

>  <SCORE.INTER.POLAR>  (39) 
0

>  <SCORE.INTER.REPUL>  (39) 
0.00207377

>  <SCORE.INTER.ROT>  (39) 
7

>  <SCORE.INTER.VDW>  (39) 
-21.4812

>  <SCORE.INTER.norm>  (39) 
-0.431945

>  <SCORE.INTRA>  (39) 
-0.116947

>  <SCORE.INTRA.DIHEDRAL>  (39) 
0.969799

>  <SCORE.INTRA.DIHEDRAL.0>  (39) 
3.30589

>  <SCORE.INTRA.POLAR>  (39) 
0

>  <SCORE.INTRA.POLAR.0>  (39) 
0

>  <SCORE.INTRA.REPUL>  (39) 
0

>  <SCORE.INTRA.REPUL.0>  (39) 
0

>  <SCORE.INTRA.VDW>  (39) 
-0.601847

>  <SCORE.INTRA.VDW.0>  (39) 
-0.72433

>  <SCORE.INTRA.norm>  (39) 
-0.00556893

>  <SCORE.RESTR>  (39) 
0.00427682

>  <SCORE.RESTR.CAVITY>  (39) 
0.00427682

>  <SCORE.RESTR.norm>  (39) 
0.000203658

>  <SCORE.SYSTEM>  (39) 
0

>  <SCORE.SYSTEM.CONST>  (39) 
0

>  <SCORE.SYSTEM.DIHEDRAL>  (39) 
0

>  <SCORE.SYSTEM.norm>  (39) 
0

>  <SCORE.heavy>  (39) 
21

>  <SCORE.norm>  (39) 
-0.43731

>  <XChemDeepScore>  (39) 
0.983830

>  <SuCOS_Max_Score>  (39) 
0.35813132083654819

>  <SuCOS_Max_FeatureMap_Score>  (39) 
0.077900068573681258

>  <SuCOS_Max_Protrude_Score>  (39) 
0.63836257309941513

>  <SuCOS_Max_Index>  (39) 
0

>  <SuCOS_Cum_Score>  (39) 
2.0202383893462343

>  <SuCOS_Cum_FeatureMap_Score>  (39) 
0.17941731533882727

>  <SuCOS_Cum_Protrude_Score>  (39) 
3.8610594633536408

$$$$
O=C(O)C(=O)C=CCCc1ccccc1
     RDKit          3D

 15 15  0  0  0  0  0  0  0  0999 V2000
   10.8312    0.2178   24.5937 O   0  0  0  0  0  0  0  0  0  0  0  0
   12.0944    0.3089   24.4782 C   0  0  0  0  0  0  0  0  0  0  0  0
   12.9336    0.4258   25.4317 O   0  0  0  0  0  0  0  0  0  0  0  0
   12.7025    0.2790   23.0572 C   0  0  0  0  0  0  0  0  0  0  0  0
   13.9106    0.4742   22.9288 O   0  0  0  0  0  0  0  0  0  0  0  0
   11.8051    0.0191   21.8938 C   0  0  0  0  0  0  0  0  0  0  0  0
   10.4913   -0.2004   22.0612 C   0  0  0  0  0  0  0  0  0  0  0  0
    9.5651   -0.4951   20.9186 C   0  0  0  0  0  0  0  0  0  0  0  0
    8.3935    0.4905   20.8424 C   0  0  0  0  0  0  0  0  0  0  0  0
    7.4177    0.0844   19.7626 C   0  0  0  0  0  0  0  0  0  0  0  0
    7.3084    0.8325   18.5826 C   0  0  0  0  0  0  0  0  0  0  0  0
    6.3612    0.4917   17.6155 C   0  0  0  0  0  0  0  0  0  0  0  0
    5.5139   -0.5959   17.8202 C   0  0  0  0  0  0  0  0  0  0  0  0
    5.6163   -1.3472   18.9895 C   0  0  0  0  0  0  0  0  0  0  0  0
    6.5633   -1.0086   19.9571 C   0  0  0  0  0  0  0  0  0  0  0  0
  1  2  2  0
  2  3  1  0
  2  4  1  0
  4  5  2  0
  4  6  1  0
  6  7  2  0
  7  8  1  0
  8  9  1  0
  9 10  1  0
 10 11  2  0
 10 15  1  0
 11 12  1  0
 12 13  2  0
 13 14  1  0
 14 15  2  0
M  END
>  <CHROM.1>  (40) 
174.23161834,-0.65985332,-123.53767584,-174.69696142,-109.11394721,9.54744602
0.01155519,21.37547198,0.67896383,0.23352036,1.73915801

>  <Name>  (40) 
O=C(O)C(=O)C=CCCc1ccccc1

>  <RI>  (40) 
0

>  <Rbt.Current_Directory>  (40) 
/home/gse84885/github/im/docking-validation/targets/mpro/expts/jackall/work/Mpro-x0072_0/work/bb/a39d37633b0b6cd63f7fe904ee3113

>  <Rbt.Executable>  (40) 
rbdock ($Id: //depot/dev/client3/rdock/2013.1/src/exe/rbdock.cxx#4 $)

>  <Rbt.Library>  (40) 
libRbt.so (2013.1, Build901 2013/11/27)

>  <Rbt.Parameter_File>  (40) 
/rDock_2013.1/data/scripts/dock.prm

>  <Rbt.Receptor>  (40) 
docking-global.prm

>  <SCORE>  (40) 
-7.00883

>  <SCORE.INTER>  (40) 
-7.70049

>  <SCORE.INTER.CONST>  (40) 
1

>  <SCORE.INTER.POLAR>  (40) 
0

>  <SCORE.INTER.REPUL>  (40) 
0

>  <SCORE.INTER.ROT>  (40) 
5

>  <SCORE.INTER.VDW>  (40) 
-18.1005

>  <SCORE.INTER.norm>  (40) 
-0.513366

>  <SCORE.INTRA>  (40) 
0.691659

>  <SCORE.INTRA.DIHEDRAL>  (40) 
-1.04179

>  <SCORE.INTRA.DIHEDRAL.0>  (40) 
1.96945

>  <SCORE.INTRA.POLAR>  (40) 
0

>  <SCORE.INTRA.POLAR.0>  (40) 
0

>  <SCORE.INTRA.REPUL>  (40) 
0

>  <SCORE.INTRA.REPUL.0>  (40) 
0

>  <SCORE.INTRA.VDW>  (40) 
1.21255

>  <SCORE.INTRA.VDW.0>  (40) 
-0.597975

>  <SCORE.INTRA.norm>  (40) 
0.0461106

>  <SCORE.RESTR>  (40) 
0

>  <SCORE.RESTR.CAVITY>  (40) 
0

>  <SCORE.RESTR.norm>  (40) 
0

>  <SCORE.SYSTEM>  (40) 
0

>  <SCORE.SYSTEM.CONST>  (40) 
0

>  <SCORE.SYSTEM.DIHEDRAL>  (40) 
0

>  <SCORE.SYSTEM.norm>  (40) 
0

>  <SCORE.heavy>  (40) 
15

>  <SCORE.norm>  (40) 
-0.467255

>  <XChemDeepScore>  (40) 
0.983799

>  <SuCOS_Max_Score>  (40) 
0.38170059057382433

>  <SuCOS_Max_FeatureMap_Score>  (40) 
0.066596002613507954

>  <SuCOS_Max_Protrude_Score>  (40) 
0.6968051785341407

>  <SuCOS_Max_Index>  (40) 
5

>  <SuCOS_Cum_Score>  (40) 
1.631135350270225

>  <SuCOS_Cum_FeatureMap_Score>  (40) 
0.38881165705896947

>  <SuCOS_Cum_Protrude_Score>  (40) 
2.8734590434814806

$$$$
O=C(O)C=C(Cc1ccccc1)c1ccncc1
     RDKit          3D

 18 19  0  0  0  0  0  0  0  0999 V2000
    8.6513    0.9444   27.4452 O   0  0  0  0  0  0  0  0  0  0  0  0
    8.8992    0.4570   26.3046 C   0  0  0  0  0  0  0  0  0  0  0  0
    8.9329    1.0279   25.1837 O   0  0  0  0  0  0  0  0  0  0  0  0
    9.1733   -1.0489   26.3317 C   0  0  0  0  0  0  0  0  0  0  0  0
    9.4700   -1.8895   25.3213 C   0  0  0  0  0  0  0  0  0  0  0  0
    9.5939   -1.5520   23.8489 C   0  0  0  0  0  0  0  0  0  0  0  0
   10.9868   -1.1093   23.4413 C   0  0  0  0  0  0  0  0  0  0  0  0
   11.6161   -0.0260   24.0701 C   0  0  0  0  0  0  0  0  0  0  0  0
   12.8887    0.3859   23.6660 C   0  0  0  0  0  0  0  0  0  0  0  0
   13.5453   -0.2807   22.6321 C   0  0  0  0  0  0  0  0  0  0  0  0
   12.9408   -1.3748   22.0180 C   0  0  0  0  0  0  0  0  0  0  0  0
   11.6747   -1.7923   22.4279 C   0  0  0  0  0  0  0  0  0  0  0  0
    9.6106   -3.3135   25.6735 C   0  0  0  0  0  0  0  0  0  0  0  0
   10.2035   -4.1924   24.7674 C   0  0  0  0  0  0  0  0  0  0  0  0
   10.2774   -5.5337   25.0998 C   0  0  0  0  0  0  0  0  0  0  0  0
    9.8089   -6.0519   26.2567 N   0  0  0  0  0  0  0  0  0  0  0  0
    9.2274   -5.1779   27.1106 C   0  0  0  0  0  0  0  0  0  0  0  0
    9.1064   -3.8181   26.8706 C   0  0  0  0  0  0  0  0  0  0  0  0
  1  2  2  0
  2  3  1  0
  2  4  1  0
  4  5  2  0
  5  6  1  0
  5 13  1  0
  6  7  1  0
  7  8  2  0
  7 12  1  0
  8  9  1  0
  9 10  2  0
 10 11  1  0
 11 12  2  0
 13 14  2  0
 13 18  1  0
 14 15  1  0
 15 16  2  0
 16 17  1  0
 17 18  2  0
M  END
>  <CHROM.1>  (41) 
-179.91363791,88.25985361,-165.60223689,-56.36145567,10.33265956,-1.85887258
24.94646834,0.94841076,0.82030688,-0.05866025

>  <Name>  (41) 
O=C(O)C=C(Cc1ccccc1)c1ccncc1

>  <RI>  (41) 
0

>  <Rbt.Current_Directory>  (41) 
/home/gse84885/github/im/docking-validation/targets/mpro/expts/jackall/work/Mpro-x0072_0/work/d6/3b36aeec4cf5864976b6b44a8583b2

>  <Rbt.Executable>  (41) 
rbdock ($Id: //depot/dev/client3/rdock/2013.1/src/exe/rbdock.cxx#4 $)

>  <Rbt.Library>  (41) 
libRbt.so (2013.1, Build901 2013/11/27)

>  <Rbt.Parameter_File>  (41) 
/rDock_2013.1/data/scripts/dock.prm

>  <Rbt.Receptor>  (41) 
docking-global.prm

>  <SCORE>  (41) 
-13.2766

>  <SCORE.INTER>  (41) 
-9.98854

>  <SCORE.INTER.CONST>  (41) 
1

>  <SCORE.INTER.POLAR>  (41) 
0

>  <SCORE.INTER.REPUL>  (41) 
0

>  <SCORE.INTER.ROT>  (41) 
4

>  <SCORE.INTER.VDW>  (41) 
-19.3885

>  <SCORE.INTER.norm>  (41) 
-0.554919

>  <SCORE.INTRA>  (41) 
-3.28807

>  <SCORE.INTRA.DIHEDRAL>  (41) 
-11.4153

>  <SCORE.INTRA.DIHEDRAL.0>  (41) 
14.8638

>  <SCORE.INTRA.POLAR>  (41) 
0

>  <SCORE.INTRA.POLAR.0>  (41) 
0

>  <SCORE.INTRA.REPUL>  (41) 
0

>  <SCORE.INTRA.REPUL.0>  (41) 
0

>  <SCORE.INTRA.VDW>  (41) 
2.4196

>  <SCORE.INTRA.VDW.0>  (41) 
-2.32221

>  <SCORE.INTRA.norm>  (41) 
-0.182671

>  <SCORE.RESTR>  (41) 
0

>  <SCORE.RESTR.CAVITY>  (41) 
0

>  <SCORE.RESTR.norm>  (41) 
0

>  <SCORE.SYSTEM>  (41) 
0

>  <SCORE.SYSTEM.CONST>  (41) 
0

>  <SCORE.SYSTEM.DIHEDRAL>  (41) 
0

>  <SCORE.SYSTEM.norm>  (41) 
0

>  <SCORE.heavy>  (41) 
18

>  <SCORE.norm>  (41) 
-0.737589

>  <XChemDeepScore>  (41) 
0.983608

>  <SuCOS_Max_Score>  (41) 
0.62788251154000063

>  <SuCOS_Max_FeatureMap_Score>  (41) 
0.47775283367540666

>  <SuCOS_Max_Protrude_Score>  (41) 
0.77801218940459449

>  <SuCOS_Max_Index>  (41) 
0

>  <SuCOS_Cum_Score>  (41) 
2.3505001957284826

>  <SuCOS_Cum_FeatureMap_Score>  (41) 
1.2346163072997394

>  <SuCOS_Cum_Protrude_Score>  (41) 
3.4663840841572271

$$$$
NS(=O)(=O)c1ccc(C=CC(=O)C(=O)O)cc1
     RDKit          3D

 17 17  0  0  0  0  0  0  0  0999 V2000
   13.0132    2.6841   23.5454 N   0  0  0  0  0  0  0  0  0  0  0  0
   13.1452    1.0127   23.6498 S   0  0  0  0  0  0  0  0  0  0  0  0
   14.4017    0.6766   23.0179 O   0  0  0  0  0  0  0  0  0  0  0  0
   12.8655    0.6840   25.0263 O   0  0  0  0  0  0  0  0  0  0  0  0
   11.8021    0.4968   22.6288 C   0  0  0  0  0  0  0  0  0  0  0  0
   11.5006   -0.8561   22.4715 C   0  0  0  0  0  0  0  0  0  0  0  0
   10.4425   -1.2279   21.6342 C   0  0  0  0  0  0  0  0  0  0  0  0
    9.6757   -0.2571   20.9707 C   0  0  0  0  0  0  0  0  0  0  0  0
    8.5946   -0.6832   20.0716 C   0  0  0  0  0  0  0  0  0  0  0  0
    7.8048    0.1710   19.4035 C   0  0  0  0  0  0  0  0  0  0  0  0
    6.7332   -0.3262   18.4957 C   0  0  0  0  0  0  0  0  0  0  0  0
    6.6835   -1.4930   18.1080 O   0  0  0  0  0  0  0  0  0  0  0  0
    5.6454    0.6613   18.0187 C   0  0  0  0  0  0  0  0  0  0  0  0
    5.9625    1.8957   18.0769 O   0  0  0  0  0  0  0  0  0  0  0  0
    4.5391    0.1843   17.6124 O   0  0  0  0  0  0  0  0  0  0  0  0
    9.9972    1.0964   21.1465 C   0  0  0  0  0  0  0  0  0  0  0  0
   11.0469    1.4762   21.9812 C   0  0  0  0  0  0  0  0  0  0  0  0
  1  2  1  0
  2  3  2  0
  2  4  2  0
  2  5  1  0
  5  6  2  0
  5 17  1  0
  6  7  1  0
  7  8  2  0
  8  9  1  0
  8 16  1  0
  9 10  2  0
 10 11  1  0
 11 12  2  0
 11 13  1  0
 13 14  2  0
 13 15  1  0
 16 17  2  0
M  END
>  <CHROM.1>  (42) 
-177.37272569,179.51448304,-14.67977658,21.57405010,9.89097513,0.42747211
21.12930988,0.13482206,-0.64839093,0.07156855

>  <Name>  (42) 
NS(=O)(=O)c1ccc(C=CC(=O)C(=O)O)cc1

>  <RI>  (42) 
0

>  <Rbt.Current_Directory>  (42) 
/home/gse84885/github/im/docking-validation/targets/mpro/expts/jackall/work/Mpro-x0072_0/work/3a/cb1f7e41c3d315d5694efaada58f2b

>  <Rbt.Executable>  (42) 
rbdock ($Id: //depot/dev/client3/rdock/2013.1/src/exe/rbdock.cxx#4 $)

>  <Rbt.Library>  (42) 
libRbt.so (2013.1, Build901 2013/11/27)

>  <Rbt.Parameter_File>  (42) 
/rDock_2013.1/data/scripts/dock.prm

>  <Rbt.Receptor>  (42) 
docking-global.prm

>  <SCORE>  (42) 
-9.11453

>  <SCORE.INTER>  (42) 
-8.93448

>  <SCORE.INTER.CONST>  (42) 
1

>  <SCORE.INTER.POLAR>  (42) 
0

>  <SCORE.INTER.REPUL>  (42) 
0.024113

>  <SCORE.INTER.ROT>  (42) 
4

>  <SCORE.INTER.VDW>  (42) 
-18.455

>  <SCORE.INTER.norm>  (42) 
-0.525558

>  <SCORE.INTRA>  (42) 
-0.180046

>  <SCORE.INTRA.DIHEDRAL>  (42) 
-0.866355

>  <SCORE.INTRA.DIHEDRAL.0>  (42) 
4.35924

>  <SCORE.INTRA.POLAR>  (42) 
0

>  <SCORE.INTRA.POLAR.0>  (42) 
0

>  <SCORE.INTRA.REPUL>  (42) 
0

>  <SCORE.INTRA.REPUL.0>  (42) 
0

>  <SCORE.INTRA.VDW>  (42) 
0.253131

>  <SCORE.INTRA.VDW.0>  (42) 
-0.547904

>  <SCORE.INTRA.norm>  (42) 
-0.010591

>  <SCORE.RESTR>  (42) 
0

>  <SCORE.RESTR.CAVITY>  (42) 
0

>  <SCORE.RESTR.norm>  (42) 
0

>  <SCORE.SYSTEM>  (42) 
0

>  <SCORE.SYSTEM.CONST>  (42) 
0

>  <SCORE.SYSTEM.DIHEDRAL>  (42) 
0

>  <SCORE.SYSTEM.norm>  (42) 
0

>  <SCORE.heavy>  (42) 
17

>  <SCORE.norm>  (42) 
-0.536149

>  <XChemDeepScore>  (42) 
0.983024

>  <SuCOS_Max_Score>  (42) 
0.34776444197347178

>  <SuCOS_Max_FeatureMap_Score>  (42) 
0.024421473455686255

>  <SuCOS_Max_Protrude_Score>  (42) 
0.67110741049125733

>  <SuCOS_Max_Index>  (42) 
5

>  <SuCOS_Cum_Score>  (42) 
1.625400409545489

>  <SuCOS_Cum_FeatureMap_Score>  (42) 
0.2795185178413197

>  <SuCOS_Cum_Protrude_Score>  (42) 
2.9712823012496585

$$$$
NC(=NCc1ccccc1)NCCc1ccncc1
     RDKit          3D

 19 20  0  0  0  0  0  0  0  0999 V2000
   12.4451   -1.1357   21.9565 N   0  0  0  0  0  0  0  0  0  0  0  0
   11.4554   -0.2115   21.9670 C   0  0  0  0  0  0  0  0  0  0  0  0
   11.4948    1.0024   22.3630 N   0  0  0  0  0  0  0  0  0  0  0  0
   12.7196    1.5360   22.9416 C   0  0  0  0  0  0  0  0  0  0  0  0
   12.7044    3.0490   22.9433 C   0  0  0  0  0  0  0  0  0  0  0  0
   12.7824    3.7700   21.7457 C   0  0  0  0  0  0  0  0  0  0  0  0
   12.7636    5.1675   21.7596 C   0  0  0  0  0  0  0  0  0  0  0  0
   12.6657    5.8546   22.9682 C   0  0  0  0  0  0  0  0  0  0  0  0
   12.5826    5.1476   24.1660 C   0  0  0  0  0  0  0  0  0  0  0  0
   12.5990    3.7525   24.1535 C   0  0  0  0  0  0  0  0  0  0  0  0
   10.3458   -0.7630   21.3977 N   0  0  0  0  0  0  0  0  0  0  0  0
    9.2545    0.0932   20.9411 C   0  0  0  0  0  0  0  0  0  0  0  0
    8.7261   -0.4405   19.6039 C   0  0  0  0  0  0  0  0  0  0  0  0
    7.4026    0.1538   19.2095 C   0  0  0  0  0  0  0  0  0  0  0  0
    6.2781   -0.0220   20.0166 C   0  0  0  0  0  0  0  0  0  0  0  0
    5.0848    0.5693   19.6272 C   0  0  0  0  0  0  0  0  0  0  0  0
    4.9426    1.3003   18.5017 N   0  0  0  0  0  0  0  0  0  0  0  0
    6.0435    1.4492   17.7340 C   0  0  0  0  0  0  0  0  0  0  0  0
    7.2776    0.9027   18.0360 C   0  0  0  0  0  0  0  0  0  0  0  0
  1  2  1  0
  2  3  2  0
  2 11  1  0
  3  4  1  0
  4  5  1  0
  5  6  2  0
  5 10  1  0
  6  7  1  0
  7  8  2  0
  8  9  1  0
  9 10  2  0
 11 12  1  0
 12 13  1  0
 13 14  1  0
 14 15  2  0
 14 19  1  0
 15 16  1  0
 16 17  2  0
 17 18  1  0
 18 19  2  0
M  END
>  <CHROM.1>  (43) 
162.39336478,-68.90075208,139.46702987,166.03979652,-61.04975883,9.97113065
1.60936384,21.15539740,-0.42960577,0.54901274,-3.08744076

>  <Name>  (43) 
NC(=NCc1ccccc1)NCCc1ccncc1

>  <RI>  (43) 
0

>  <Rbt.Current_Directory>  (43) 
/home/gse84885/github/im/docking-validation/targets/mpro/expts/jackall/work/Mpro-x0072_0/work/06/9b3582f8d135967e3a2ded1b6ca89e

>  <Rbt.Executable>  (43) 
rbdock ($Id: //depot/dev/client3/rdock/2013.1/src/exe/rbdock.cxx#4 $)

>  <Rbt.Library>  (43) 
libRbt.so (2013.1, Build901 2013/11/27)

>  <Rbt.Parameter_File>  (43) 
/rDock_2013.1/data/scripts/dock.prm

>  <Rbt.Receptor>  (43) 
docking-global.prm

>  <SCORE>  (43) 
-12.7266

>  <SCORE.INTER>  (43) 
-12.1596

>  <SCORE.INTER.CONST>  (43) 
1

>  <SCORE.INTER.POLAR>  (43) 
0

>  <SCORE.INTER.REPUL>  (43) 
0.0160179

>  <SCORE.INTER.ROT>  (43) 
5

>  <SCORE.INTER.VDW>  (43) 
-22.6397

>  <SCORE.INTER.norm>  (43) 
-0.639981

>  <SCORE.INTRA>  (43) 
-0.566998

>  <SCORE.INTRA.DIHEDRAL>  (43) 
-1.36177

>  <SCORE.INTRA.DIHEDRAL.0>  (43) 
6.00919

>  <SCORE.INTRA.POLAR>  (43) 
0

>  <SCORE.INTRA.POLAR.0>  (43) 
0

>  <SCORE.INTRA.REPUL>  (43) 
0

>  <SCORE.INTRA.REPUL.0>  (43) 
0

>  <SCORE.INTRA.VDW>  (43) 
0.113889

>  <SCORE.INTRA.VDW.0>  (43) 
-1.02143

>  <SCORE.INTRA.norm>  (43) 
-0.029842

>  <SCORE.RESTR>  (43) 
0

>  <SCORE.RESTR.CAVITY>  (43) 
0

>  <SCORE.RESTR.norm>  (43) 
0

>  <SCORE.SYSTEM>  (43) 
0

>  <SCORE.SYSTEM.CONST>  (43) 
0

>  <SCORE.SYSTEM.DIHEDRAL>  (43) 
0

>  <SCORE.SYSTEM.norm>  (43) 
0

>  <SCORE.heavy>  (43) 
19

>  <SCORE.norm>  (43) 
-0.669823

>  <XChemDeepScore>  (43) 
0.982500

>  <SuCOS_Max_Score>  (43) 
0.42170065499305631

>  <SuCOS_Max_FeatureMap_Score>  (43) 
0.16335951270293605

>  <SuCOS_Max_Protrude_Score>  (43) 
0.6800417972831766

>  <SuCOS_Max_Index>  (43) 
5

>  <SuCOS_Cum_Score>  (43) 
1.7856683535357534

>  <SuCOS_Cum_FeatureMap_Score>  (43) 
0.42662418546404152

>  <SuCOS_Cum_Protrude_Score>  (43) 
3.1447125216074654

$$$$
CC(C)C(C[C@@H](N)C(=O)O)c1ccccc1
     RDKit          3D

 16 16  0  0  0  0  0  0  0  0999 V2000
    8.8622    2.3976   21.9359 C   0  0  0  0  0  0  0  0  0  0  0  0
    9.5520    2.3995   23.3043 C   0  0  0  0  0  0  0  0  0  0  0  0
    8.7576    1.4905   24.2554 C   0  0  0  0  0  0  0  0  0  0  0  0
   11.0955    2.0764   23.3346 C   0  0  1  0  0  0  0  0  0  0  0  0
   11.4984    0.7244   22.6485 C   0  0  0  0  0  0  0  0  0  0  0  0
   12.9716    0.2569   22.6376 C   0  0  1  0  0  0  0  0  0  0  0  0
   13.6243    0.2922   23.9737 N   0  0  0  0  0  0  0  0  0  0  0  0
   13.0660   -1.2168   22.0659 C   0  0  0  0  0  0  0  0  0  0  0  0
   12.1633   -2.0192   22.4505 O   0  0  0  0  0  0  0  0  0  0  0  0
   14.0304   -1.4275   21.2717 O   0  0  0  0  0  0  0  0  0  0  0  0
   12.0531    3.2414   23.0210 C   0  0  0  0  0  0  0  0  0  0  0  0
   12.3841    3.6334   21.7191 C   0  0  0  0  0  0  0  0  0  0  0  0
   13.4072    4.5583   21.4770 C   0  0  0  0  0  0  0  0  0  0  0  0
   14.0746    5.1629   22.5347 C   0  0  0  0  0  0  0  0  0  0  0  0
   13.6775    4.8825   23.8362 C   0  0  0  0  0  0  0  0  0  0  0  0
   12.6672    3.9495   24.0777 C   0  0  0  0  0  0  0  0  0  0  0  0
  1  2  1  0
  2  3  1  0
  2  4  1  0
  4  5  1  6
  4 11  1  0
  5  6  1  0
  6  7  1  1
  6  8  1  0
  8  9  2  0
  8 10  1  0
 11 12  2  0
 11 16  1  0
 12 13  1  0
 13 14  2  0
 14 15  1  0
 15 16  2  0
M  END
>  <CHROM.1>  (44) 
-54.57074740,-178.22602854,-83.06038943,49.96281180,-40.97119197,12.08332987
1.79745609,22.77151668,1.58640652,0.18040186,0.10184990

>  <Name>  (44) 
CC(C)C(C[C@@H](N)C(=O)O)c1ccccc1

>  <RI>  (44) 
0

>  <Rbt.Current_Directory>  (44) 
/home/gse84885/github/im/docking-validation/targets/mpro/expts/jackall/work/Mpro-x0072_0/work/22/8391ad9d483c133c9101f8df79e616

>  <Rbt.Executable>  (44) 
rbdock ($Id: //depot/dev/client3/rdock/2013.1/src/exe/rbdock.cxx#4 $)

>  <Rbt.Library>  (44) 
libRbt.so (2013.1, Build901 2013/11/27)

>  <Rbt.Parameter_File>  (44) 
/rDock_2013.1/data/scripts/dock.prm

>  <Rbt.Receptor>  (44) 
docking-global.prm

>  <SCORE>  (44) 
-8.43274

>  <SCORE.INTER>  (44) 
-7.32671

>  <SCORE.INTER.CONST>  (44) 
1

>  <SCORE.INTER.POLAR>  (44) 
0

>  <SCORE.INTER.REPUL>  (44) 
0

>  <SCORE.INTER.ROT>  (44) 
5

>  <SCORE.INTER.VDW>  (44) 
-17.7267

>  <SCORE.INTER.norm>  (44) 
-0.457919

>  <SCORE.INTRA>  (44) 
-1.10603

>  <SCORE.INTRA.DIHEDRAL>  (44) 
-0.60644

>  <SCORE.INTRA.DIHEDRAL.0>  (44) 
5.33509

>  <SCORE.INTRA.POLAR>  (44) 
0

>  <SCORE.INTRA.POLAR.0>  (44) 
0

>  <SCORE.INTRA.REPUL>  (44) 
0

>  <SCORE.INTRA.REPUL.0>  (44) 
0

>  <SCORE.INTRA.VDW>  (44) 
-0.802808

>  <SCORE.INTRA.VDW.0>  (44) 
-0.410869

>  <SCORE.INTRA.norm>  (44) 
-0.0691267

>  <SCORE.RESTR>  (44) 
0

>  <SCORE.RESTR.CAVITY>  (44) 
0

>  <SCORE.RESTR.norm>  (44) 
0

>  <SCORE.SYSTEM>  (44) 
0

>  <SCORE.SYSTEM.CONST>  (44) 
0

>  <SCORE.SYSTEM.DIHEDRAL>  (44) 
0

>  <SCORE.SYSTEM.norm>  (44) 
0

>  <SCORE.heavy>  (44) 
16

>  <SCORE.norm>  (44) 
-0.527046

>  <XChemDeepScore>  (44) 
0.982249

>  <SuCOS_Max_Score>  (44) 
0.41002232191420412

>  <SuCOS_Max_FeatureMap_Score>  (44) 
0.21589509575938601

>  <SuCOS_Max_Protrude_Score>  (44) 
0.60414954806902221

>  <SuCOS_Max_Index>  (44) 
1

>  <SuCOS_Cum_Score>  (44) 
1.8281273921261374

>  <SuCOS_Cum_FeatureMap_Score>  (44) 
0.52293472720356138

>  <SuCOS_Cum_Protrude_Score>  (44) 
3.1333200570487136

$$$$
COC(C=CC(=O)C(=O)O)Cc1ccccc1
     RDKit          3D

 17 17  0  0  0  0  0  0  0  0999 V2000
    7.0961   -0.4097   21.4534 C   0  0  0  0  0  0  0  0  0  0  0  0
    7.6063   -1.6839   21.8327 O   0  0  0  0  0  0  0  0  0  0  0  0
    8.9065   -1.6149   22.4440 C   0  0  1  0  0  0  0  0  0  0  0  0
    9.1949   -2.9324   23.1116 C   0  0  0  0  0  0  0  0  0  0  0  0
    9.2834   -3.1164   24.4386 C   0  0  0  0  0  0  0  0  0  0  0  0
    9.5255   -4.4823   24.9926 C   0  0  0  0  0  0  0  0  0  0  0  0
    9.5758   -5.4841   24.2789 O   0  0  0  0  0  0  0  0  0  0  0  0
    9.7150   -4.6505   26.5163 C   0  0  0  0  0  0  0  0  0  0  0  0
    9.3477   -3.6570   27.2254 O   0  0  0  0  0  0  0  0  0  0  0  0
   10.2155   -5.7418   26.9405 O   0  0  0  0  0  0  0  0  0  0  0  0
    9.9590   -1.3611   21.3410 C   0  0  0  0  0  0  0  0  0  0  0  0
   11.2981   -0.8844   21.8665 C   0  0  0  0  0  0  0  0  0  0  0  0
   12.4648   -1.6289   21.6518 C   0  0  0  0  0  0  0  0  0  0  0  0
   13.6870   -1.1920   22.1703 C   0  0  0  0  0  0  0  0  0  0  0  0
   13.7546   -0.0081   22.9042 C   0  0  0  0  0  0  0  0  0  0  0  0
   12.6026    0.7470   23.1110 C   0  0  0  0  0  0  0  0  0  0  0  0
   11.3813    0.3105   22.5962 C   0  0  0  0  0  0  0  0  0  0  0  0
  1  2  1  0
  2  3  1  0
  3  4  1  6
  3 11  1  0
  4  5  2  0
  5  6  1  0
  6  7  2  0
  6  8  1  0
  8  9  2  0
  8 10  1  0
 11 12  1  0
 12 13  2  0
 12 17  1  0
 13 14  1  0
 14 15  2  0
 15 16  1  0
 16 17  2  0
M  END
>  <CHROM.1>  (45) 
165.79847157,-111.92554901,163.75820143,-4.20886729,15.54730803,119.03699006
10.24415700,-2.28716933,23.50590000,1.23715291,-0.23762559,-0.81730030

>  <Name>  (45) 
COC(C=CC(=O)C(=O)O)Cc1ccccc1

>  <RI>  (45) 
0

>  <Rbt.Current_Directory>  (45) 
/home/gse84885/github/im/docking-validation/targets/mpro/expts/jackall/work/Mpro-x0072_0/work/8c/170de04aba41717a842d964b09b1cd

>  <Rbt.Executable>  (45) 
rbdock ($Id: //depot/dev/client3/rdock/2013.1/src/exe/rbdock.cxx#4 $)

>  <Rbt.Library>  (45) 
libRbt.so (2013.1, Build901 2013/11/27)

>  <Rbt.Parameter_File>  (45) 
/rDock_2013.1/data/scripts/dock.prm

>  <Rbt.Receptor>  (45) 
docking-global.prm

>  <SCORE>  (45) 
-4.06455

>  <SCORE.INTER>  (45) 
-5.02801

>  <SCORE.INTER.CONST>  (45) 
1

>  <SCORE.INTER.POLAR>  (45) 
0

>  <SCORE.INTER.REPUL>  (45) 
0.00224854

>  <SCORE.INTER.ROT>  (45) 
6

>  <SCORE.INTER.VDW>  (45) 
-16.4392

>  <SCORE.INTER.norm>  (45) 
-0.295765

>  <SCORE.INTRA>  (45) 
0.963459

>  <SCORE.INTRA.DIHEDRAL>  (45) 
2.54436

>  <SCORE.INTRA.DIHEDRAL.0>  (45) 
1.03911

>  <SCORE.INTRA.POLAR>  (45) 
0

>  <SCORE.INTRA.POLAR.0>  (45) 
0

>  <SCORE.INTRA.REPUL>  (45) 
0

>  <SCORE.INTRA.REPUL.0>  (45) 
0

>  <SCORE.INTRA.VDW>  (45) 
-0.308722

>  <SCORE.INTRA.VDW.0>  (45) 
0.117392

>  <SCORE.INTRA.norm>  (45) 
0.056674

>  <SCORE.RESTR>  (45) 
0

>  <SCORE.RESTR.CAVITY>  (45) 
0

>  <SCORE.RESTR.norm>  (45) 
0

>  <SCORE.SYSTEM>  (45) 
0

>  <SCORE.SYSTEM.CONST>  (45) 
0

>  <SCORE.SYSTEM.DIHEDRAL>  (45) 
0

>  <SCORE.SYSTEM.norm>  (45) 
0

>  <SCORE.heavy>  (45) 
17

>  <SCORE.norm>  (45) 
-0.239091

>  <XChemDeepScore>  (45) 
0.982175

>  <SuCOS_Max_Score>  (45) 
0.49129306880975454

>  <SuCOS_Max_FeatureMap_Score>  (45) 
0.25797219283710382

>  <SuCOS_Max_Protrude_Score>  (45) 
0.72461394478240526

>  <SuCOS_Max_Index>  (45) 
0

>  <SuCOS_Cum_Score>  (45) 
1.8254438802955892

>  <SuCOS_Cum_FeatureMap_Score>  (45) 
0.58587327910106679

>  <SuCOS_Cum_Protrude_Score>  (45) 
3.0650144814901124

$$$$
CC(CN)(Cc1ccncc1)c1ccccc1
     RDKit          3D

 17 18  0  0  0  0  0  0  0  0999 V2000
    9.7510    2.1045   21.6218 C   0  0  0  0  0  0  0  0  0  0  0  0
   10.3129    2.5124   23.0081 C   0  0  1  0  0  0  0  0  0  0  0  0
    9.0976    3.1219   23.8104 C   0  0  0  0  0  0  0  0  0  0  0  0
    8.5834    4.3877   23.2775 N   0  0  0  0  0  0  0  0  0  0  0  0
   10.7797    1.2356   23.7951 C   0  0  0  0  0  0  0  0  0  0  0  0
   11.8521    0.3645   23.1671 C   0  0  0  0  0  0  0  0  0  0  0  0
   13.2083    0.6658   23.3303 C   0  0  0  0  0  0  0  0  0  0  0  0
   14.1572   -0.1680   22.7530 C   0  0  0  0  0  0  0  0  0  0  0  0
   13.8528   -1.2653   22.0311 N   0  0  0  0  0  0  0  0  0  0  0  0
   12.5415   -1.5391   21.8775 C   0  0  0  0  0  0  0  0  0  0  0  0
   11.5204   -0.7705   22.4214 C   0  0  0  0  0  0  0  0  0  0  0  0
   11.5035    3.4946   22.9024 C   0  0  0  0  0  0  0  0  0  0  0  0
   11.8402    4.3687   23.9542 C   0  0  0  0  0  0  0  0  0  0  0  0
   12.9660    5.1938   23.8821 C   0  0  0  0  0  0  0  0  0  0  0  0
   13.7970    5.1487   22.7687 C   0  0  0  0  0  0  0  0  0  0  0  0
   13.4907    4.2927   21.7180 C   0  0  0  0  0  0  0  0  0  0  0  0
   12.3531    3.4831   21.7816 C   0  0  0  0  0  0  0  0  0  0  0  0
  2  1  1  6
  2  3  1  0
  2  5  1  0
  2 12  1  0
  3  4  1  0
  5  6  1  0
  6  7  2  0
  6 11  1  0
  7  8  1  0
  8  9  2  0
  9 10  1  0
 10 11  2  0
 12 13  2  0
 12 17  1  0
 13 14  1  0
 14 15  2  0
 15 16  1  0
 16 17  2  0
M  END
>  <CHROM.1>  (46) 
-67.01084023,59.17089575,155.67783143,84.75095870,11.82596856,2.14971147
22.82313753,1.90138601,0.11469108,0.10742505

>  <Name>  (46) 
CC(CN)(Cc1ccncc1)c1ccccc1

>  <RI>  (46) 
0

>  <Rbt.Current_Directory>  (46) 
/home/gse84885/github/im/docking-validation/targets/mpro/expts/jackall/work/Mpro-x0072_0/work/09/dd4774eebec764319852734a24b373

>  <Rbt.Executable>  (46) 
rbdock ($Id: //depot/dev/client3/rdock/2013.1/src/exe/rbdock.cxx#4 $)

>  <Rbt.Library>  (46) 
libRbt.so (2013.1, Build901 2013/11/27)

>  <Rbt.Parameter_File>  (46) 
/rDock_2013.1/data/scripts/dock.prm

>  <Rbt.Receptor>  (46) 
docking-global.prm

>  <SCORE>  (46) 
-9.0624

>  <SCORE.INTER>  (46) 
-9.13634

>  <SCORE.INTER.CONST>  (46) 
1

>  <SCORE.INTER.POLAR>  (46) 
0

>  <SCORE.INTER.REPUL>  (46) 
0

>  <SCORE.INTER.ROT>  (46) 
4

>  <SCORE.INTER.VDW>  (46) 
-18.5363

>  <SCORE.INTER.norm>  (46) 
-0.537432

>  <SCORE.INTRA>  (46) 
0.0739369

>  <SCORE.INTRA.DIHEDRAL>  (46) 
0.129947

>  <SCORE.INTRA.DIHEDRAL.0>  (46) 
1.53869

>  <SCORE.INTRA.POLAR>  (46) 
0

>  <SCORE.INTRA.POLAR.0>  (46) 
0

>  <SCORE.INTRA.REPUL>  (46) 
0

>  <SCORE.INTRA.REPUL.0>  (46) 
0

>  <SCORE.INTRA.VDW>  (46) 
0.00896351

>  <SCORE.INTRA.VDW.0>  (46) 
-0.768276

>  <SCORE.INTRA.norm>  (46) 
0.00434923

>  <SCORE.RESTR>  (46) 
0

>  <SCORE.RESTR.CAVITY>  (46) 
0

>  <SCORE.RESTR.norm>  (46) 
0

>  <SCORE.SYSTEM>  (46) 
0

>  <SCORE.SYSTEM.CONST>  (46) 
0

>  <SCORE.SYSTEM.DIHEDRAL>  (46) 
0

>  <SCORE.SYSTEM.norm>  (46) 
0

>  <SCORE.heavy>  (46) 
17

>  <SCORE.norm>  (46) 
-0.533083

>  <XChemDeepScore>  (46) 
0.981597

>  <SuCOS_Max_Score>  (46) 
0.43960096580524038

>  <SuCOS_Max_FeatureMap_Score>  (46) 
0.17304737353551547

>  <SuCOS_Max_Protrude_Score>  (46) 
0.7061545580749653

>  <SuCOS_Max_Index>  (46) 
2

>  <SuCOS_Cum_Score>  (46) 
2.1030870988475749

>  <SuCOS_Cum_FeatureMap_Score>  (46) 
0.67559118236924143

>  <SuCOS_Cum_Protrude_Score>  (46) 
3.5305830153259077

$$$$
O=C(O)C=C(Cc1ccccc1)c1cccnc1
     RDKit          3D

 18 19  0  0  0  0  0  0  0  0999 V2000
    8.8651    0.4661   28.5334 O   0  0  0  0  0  0  0  0  0  0  0  0
    8.9505    0.2269   27.2949 C   0  0  0  0  0  0  0  0  0  0  0  0
    9.0014    1.0059   26.3149 O   0  0  0  0  0  0  0  0  0  0  0  0
    9.0680   -1.2691   26.9980 C   0  0  0  0  0  0  0  0  0  0  0  0
    9.3266   -1.8732   25.8226 C   0  0  0  0  0  0  0  0  0  0  0  0
    9.4644   -1.2218   24.4627 C   0  0  0  0  0  0  0  0  0  0  0  0
   10.8672   -0.7772   24.0796 C   0  0  0  0  0  0  0  0  0  0  0  0
   11.4324   -1.2360   22.8787 C   0  0  0  0  0  0  0  0  0  0  0  0
   12.6526   -0.7295   22.4222 C   0  0  0  0  0  0  0  0  0  0  0  0
   13.3285    0.2383   23.1617 C   0  0  0  0  0  0  0  0  0  0  0  0
   12.7854    0.6998   24.3571 C   0  0  0  0  0  0  0  0  0  0  0  0
   11.5591    0.2048   24.8050 C   0  0  0  0  0  0  0  0  0  0  0  0
    9.5370   -3.3208   25.8926 C   0  0  0  0  0  0  0  0  0  0  0  0
   10.0059   -4.0556   24.8026 C   0  0  0  0  0  0  0  0  0  0  0  0
   10.0882   -5.4431   24.8938 C   0  0  0  0  0  0  0  0  0  0  0  0
    9.6921   -6.0669   26.0703 C   0  0  0  0  0  0  0  0  0  0  0  0
    9.2429   -5.3339   27.1024 N   0  0  0  0  0  0  0  0  0  0  0  0
    9.1542   -3.9979   27.0475 C   0  0  0  0  0  0  0  0  0  0  0  0
  1  2  2  0
  2  3  1  0
  2  4  1  0
  4  5  2  0
  5  6  1  0
  5 13  1  0
  6  7  1  0
  7  8  2  0
  7 12  1  0
  8  9  1  0
  9 10  2  0
 10 11  1  0
 11 12  2  0
 13 14  2  0
 13 18  1  0
 14 15  1  0
 15 16  2  0
 16 17  1  0
 17 18  2  0
M  END
>  <CHROM.1>  (47) 
-171.73484617,90.04617138,-170.34473755,125.02623940,10.24785870,-1.75944979
25.43322360,0.85414976,0.89725218,0.15852351

>  <Name>  (47) 
O=C(O)C=C(Cc1ccccc1)c1cccnc1

>  <RI>  (47) 
0

>  <Rbt.Current_Directory>  (47) 
/home/gse84885/github/im/docking-validation/targets/mpro/expts/jackall/work/Mpro-x0072_0/work/35/4c144947d6b15ffbeb0e46d184ccc2

>  <Rbt.Executable>  (47) 
rbdock ($Id: //depot/dev/client3/rdock/2013.1/src/exe/rbdock.cxx#4 $)

>  <Rbt.Library>  (47) 
libRbt.so (2013.1, Build901 2013/11/27)

>  <Rbt.Parameter_File>  (47) 
/rDock_2013.1/data/scripts/dock.prm

>  <Rbt.Receptor>  (47) 
docking-global.prm

>  <SCORE>  (47) 
-13.4505

>  <SCORE.INTER>  (47) 
-9.65117

>  <SCORE.INTER.CONST>  (47) 
1

>  <SCORE.INTER.POLAR>  (47) 
0

>  <SCORE.INTER.REPUL>  (47) 
0.00262998

>  <SCORE.INTER.ROT>  (47) 
4

>  <SCORE.INTER.VDW>  (47) 
-19.0643

>  <SCORE.INTER.norm>  (47) 
-0.536176

>  <SCORE.INTRA>  (47) 
-3.79932

>  <SCORE.INTRA.DIHEDRAL>  (47) 
-12.8449

>  <SCORE.INTRA.DIHEDRAL.0>  (47) 
15.5675

>  <SCORE.INTRA.POLAR>  (47) 
0

>  <SCORE.INTRA.POLAR.0>  (47) 
0

>  <SCORE.INTRA.REPUL>  (47) 
0

>  <SCORE.INTRA.REPUL.0>  (47) 
0

>  <SCORE.INTRA.VDW>  (47) 
2.62315

>  <SCORE.INTRA.VDW.0>  (47) 
-2.04414

>  <SCORE.INTRA.norm>  (47) 
-0.211073

>  <SCORE.RESTR>  (47) 
0

>  <SCORE.RESTR.CAVITY>  (47) 
0

>  <SCORE.RESTR.norm>  (47) 
0

>  <SCORE.SYSTEM>  (47) 
0

>  <SCORE.SYSTEM.CONST>  (47) 
0

>  <SCORE.SYSTEM.DIHEDRAL>  (47) 
0

>  <SCORE.SYSTEM.norm>  (47) 
0

>  <SCORE.heavy>  (47) 
18

>  <SCORE.norm>  (47) 
-0.747249

>  <XChemDeepScore>  (47) 
0.981559

>  <SuCOS_Max_Score>  (47) 
0.5234831970252154

>  <SuCOS_Max_FeatureMap_Score>  (47) 
0.30968221299583448

>  <SuCOS_Max_Protrude_Score>  (47) 
0.73728418105459637

>  <SuCOS_Max_Index>  (47) 
0

>  <SuCOS_Cum_Score>  (47) 
2.1537008816414263

>  <SuCOS_Cum_FeatureMap_Score>  (47) 
1.0314113324091232

>  <SuCOS_Cum_Protrude_Score>  (47) 
3.2759904308737289

$$$$
CN(O)C(=O)C(CN)c1ccccc1
     RDKit          3D

 14 14  0  0  0  0  0  0  0  0999 V2000
   11.8792   -1.4025   22.3232 C   0  0  0  0  0  0  0  0  0  0  0  0
   12.8680   -0.3345   22.2620 N   0  0  0  0  0  0  0  0  0  0  0  0
   14.1907   -0.7613   22.0314 O   0  0  0  0  0  0  0  0  0  0  0  0
   12.6999    0.8607   22.9173 C   0  0  0  0  0  0  0  0  0  0  0  0
   12.9940    1.0309   24.1080 O   0  0  0  0  0  0  0  0  0  0  0  0
   12.0922    2.0170   22.1263 C   0  0  1  0  0  0  0  0  0  0  0  0
   10.5592    1.9652   22.3036 C   0  0  0  0  0  0  0  0  0  0  0  0
    9.9311    0.8434   21.5418 N   0  0  0  0  0  0  0  0  0  0  0  0
   12.6231    3.3933   22.5007 C   0  0  0  0  0  0  0  0  0  0  0  0
   13.0388    4.2591   21.4738 C   0  0  0  0  0  0  0  0  0  0  0  0
   13.4868    5.5488   21.7648 C   0  0  0  0  0  0  0  0  0  0  0  0
   13.5221    5.9936   23.0828 C   0  0  0  0  0  0  0  0  0  0  0  0
   13.1148    5.1484   24.1120 C   0  0  0  0  0  0  0  0  0  0  0  0
   12.6693    3.8551   23.8258 C   0  0  0  0  0  0  0  0  0  0  0  0
  1  2  1  0
  2  3  1  0
  2  4  1  0
  4  5  2  0
  4  6  1  0
  6  7  1  1
  6  9  1  0
  7  8  1  0
  9 10  2  0
  9 14  1  0
 10 11  1  0
 11 12  2  0
 12 13  1  0
 13 14  2  0
M  END
>  <CHROM.1>  (48) 
84.12741139,90.28777098,-73.03037401,131.31125402,12.54976949,2.18716228
22.60000128,1.72979356,0.35714895,-3.10089208

>  <Name>  (48) 
CN(O)C(=O)C(CN)c1ccccc1

>  <RI>  (48) 
0

>  <Rbt.Current_Directory>  (48) 
/home/gse84885/github/im/docking-validation/targets/mpro/expts/jackall/work/Mpro-x0072_0/work/5c/dca04e63b9a60e3b0a0a81b0a01189

>  <Rbt.Executable>  (48) 
rbdock ($Id: //depot/dev/client3/rdock/2013.1/src/exe/rbdock.cxx#4 $)

>  <Rbt.Library>  (48) 
libRbt.so (2013.1, Build901 2013/11/27)

>  <Rbt.Parameter_File>  (48) 
/rDock_2013.1/data/scripts/dock.prm

>  <Rbt.Receptor>  (48) 
docking-global.prm

>  <SCORE>  (48) 
-9.40799

>  <SCORE.INTER>  (48) 
-8.19204

>  <SCORE.INTER.CONST>  (48) 
1

>  <SCORE.INTER.POLAR>  (48) 
0

>  <SCORE.INTER.REPUL>  (48) 
0.0194462

>  <SCORE.INTER.ROT>  (48) 
4

>  <SCORE.INTER.VDW>  (48) 
-17.6893

>  <SCORE.INTER.norm>  (48) 
-0.585146

>  <SCORE.INTRA>  (48) 
-1.21595

>  <SCORE.INTRA.DIHEDRAL>  (48) 
0.566523

>  <SCORE.INTRA.DIHEDRAL.0>  (48) 
2.96195

>  <SCORE.INTRA.POLAR>  (48) 
0

>  <SCORE.INTRA.POLAR.0>  (48) 
0

>  <SCORE.INTRA.REPUL>  (48) 
0

>  <SCORE.INTRA.REPUL.0>  (48) 
0

>  <SCORE.INTRA.VDW>  (48) 
-1.49921

>  <SCORE.INTRA.VDW.0>  (48) 
0.128964

>  <SCORE.INTRA.norm>  (48) 
-0.0868537

>  <SCORE.RESTR>  (48) 
0

>  <SCORE.RESTR.CAVITY>  (48) 
0

>  <SCORE.RESTR.norm>  (48) 
0

>  <SCORE.SYSTEM>  (48) 
0

>  <SCORE.SYSTEM.CONST>  (48) 
0

>  <SCORE.SYSTEM.DIHEDRAL>  (48) 
0

>  <SCORE.SYSTEM.norm>  (48) 
0

>  <SCORE.heavy>  (48) 
14

>  <SCORE.norm>  (48) 
-0.671999

>  <XChemDeepScore>  (48) 
0.981227

>  <SuCOS_Max_Score>  (48) 
0.32673376428168793

>  <SuCOS_Max_FeatureMap_Score>  (48) 
0.11680638523280414

>  <SuCOS_Max_Protrude_Score>  (48) 
0.53666114333057169

>  <SuCOS_Max_Index>  (48) 
1

>  <SuCOS_Cum_Score>  (48) 
1.5295735178097245

>  <SuCOS_Cum_FeatureMap_Score>  (48) 
0.21832833792583492

>  <SuCOS_Cum_Protrude_Score>  (48) 
2.8408186976936141

$$$$
COC(=O)c1cccc(CCC(=O)C(=O)O)c1
     RDKit          3D

 17 17  0  0  0  0  0  0  0  0999 V2000
    7.7542    0.4723   20.2518 C   0  0  0  0  0  0  0  0  0  0  0  0
    9.0402    0.6533   20.8393 O   0  0  0  0  0  0  0  0  0  0  0  0
    9.7414   -0.4942   21.0175 C   0  0  0  0  0  0  0  0  0  0  0  0
    9.3541   -1.6181   20.7327 O   0  0  0  0  0  0  0  0  0  0  0  0
   11.0625   -0.2061   21.6404 C   0  0  0  0  0  0  0  0  0  0  0  0
   12.0012   -1.2426   21.7080 C   0  0  0  0  0  0  0  0  0  0  0  0
   13.2316   -1.0331   22.3323 C   0  0  0  0  0  0  0  0  0  0  0  0
   13.5235    0.2110   22.8961 C   0  0  0  0  0  0  0  0  0  0  0  0
   12.6051    1.2659   22.8268 C   0  0  0  0  0  0  0  0  0  0  0  0
   12.9055    2.5991   23.4801 C   0  0  0  0  0  0  0  0  0  0  0  0
   12.5200    3.7935   22.6135 C   0  0  0  0  0  0  0  0  0  0  0  0
   13.0105    5.1022   23.1908 C   0  0  0  0  0  0  0  0  0  0  0  0
   14.0283    5.6837   22.8163 O   0  0  0  0  0  0  0  0  0  0  0  0
   12.1695    5.7364   24.3072 C   0  0  0  0  0  0  0  0  0  0  0  0
   11.1032    5.1044   24.6019 O   0  0  0  0  0  0  0  0  0  0  0  0
   12.5833    6.8122   24.8379 O   0  0  0  0  0  0  0  0  0  0  0  0
   11.3727    1.0478   22.1896 C   0  0  0  0  0  0  0  0  0  0  0  0
  1  2  1  0
  2  3  1  0
  3  4  2  0
  3  5  1  0
  5  6  2  0
  5 17  1  0
  6  7  1  0
  7  8  2  0
  8  9  1  0
  9 10  1  0
  9 17  2  0
 10 11  1  0
 11 12  1  0
 12 13  2  0
 12 14  1  0
 14 15  2  0
 14 16  1  0
M  END
>  <CHROM.1>  (49) 
-0.74511354,-170.27816254,137.49456593,-171.59304248,99.11317033,-2.36987976
11.59475017,2.06902249,22.48812859,1.96329372,0.31917251,-2.84114148

>  <Name>  (49) 
COC(=O)c1cccc(CCC(=O)C(=O)O)c1

>  <RI>  (49) 
0

>  <Rbt.Current_Directory>  (49) 
/home/gse84885/github/im/docking-validation/targets/mpro/expts/jackall/work/Mpro-x0072_0/work/d8/381e020584e0d59e0707d0f45185c7

>  <Rbt.Executable>  (49) 
rbdock ($Id: //depot/dev/client3/rdock/2013.1/src/exe/rbdock.cxx#4 $)

>  <Rbt.Library>  (49) 
libRbt.so (2013.1, Build901 2013/11/27)

>  <Rbt.Parameter_File>  (49) 
/rDock_2013.1/data/scripts/dock.prm

>  <Rbt.Receptor>  (49) 
docking-global.prm

>  <SCORE>  (49) 
-7.53117

>  <SCORE.INTER>  (49) 
-7.24852

>  <SCORE.INTER.CONST>  (49) 
1

>  <SCORE.INTER.POLAR>  (49) 
0

>  <SCORE.INTER.REPUL>  (49) 
0

>  <SCORE.INTER.ROT>  (49) 
6

>  <SCORE.INTER.VDW>  (49) 
-18.6485

>  <SCORE.INTER.norm>  (49) 
-0.426383

>  <SCORE.INTRA>  (49) 
-0.282648

>  <SCORE.INTRA.DIHEDRAL>  (49) 
0.446568

>  <SCORE.INTRA.DIHEDRAL.0>  (49) 
3.2321

>  <SCORE.INTRA.POLAR>  (49) 
0

>  <SCORE.INTRA.POLAR.0>  (49) 
0

>  <SCORE.INTRA.REPUL>  (49) 
0

>  <SCORE.INTRA.REPUL.0>  (49) 
0

>  <SCORE.INTRA.VDW>  (49) 
-0.505932

>  <SCORE.INTRA.VDW.0>  (49) 
2.44432

>  <SCORE.INTRA.norm>  (49) 
-0.0166264

>  <SCORE.RESTR>  (49) 
0

>  <SCORE.RESTR.CAVITY>  (49) 
0

>  <SCORE.RESTR.norm>  (49) 
0

>  <SCORE.SYSTEM>  (49) 
0

>  <SCORE.SYSTEM.CONST>  (49) 
0

>  <SCORE.SYSTEM.DIHEDRAL>  (49) 
0

>  <SCORE.SYSTEM.norm>  (49) 
0

>  <SCORE.heavy>  (49) 
17

>  <SCORE.norm>  (49) 
-0.44301

>  <XChemDeepScore>  (49) 
0.980233

>  <SuCOS_Max_Score>  (49) 
0.4557184642353328

>  <SuCOS_Max_FeatureMap_Score>  (49) 
0.35390012565084383

>  <SuCOS_Max_Protrude_Score>  (49) 
0.55753680281982176

>  <SuCOS_Max_Index>  (49) 
1

>  <SuCOS_Cum_Score>  (49) 
2.1569159891390424

>  <SuCOS_Cum_FeatureMap_Score>  (49) 
1.1508707126048898

>  <SuCOS_Cum_Protrude_Score>  (49) 
3.1629612656731956

$$$$
CC(Cc1cccnc1)NC(N)=NCc1ccccc1
     RDKit          3D

 20 21  0  0  0  0  0  0  0  0999 V2000
   12.6708    0.9841   23.6931 C   0  0  0  0  0  0  0  0  0  0  0  0
   11.4797    1.0345   22.7310 C   0  0  1  0  0  0  0  0  0  0  0  0
   11.7164    2.1332   21.6669 C   0  0  0  0  0  0  0  0  0  0  0  0
   12.0177    3.4864   22.2612 C   0  0  0  0  0  0  0  0  0  0  0  0
   13.1495    4.2177   21.8813 C   0  0  0  0  0  0  0  0  0  0  0  0
   13.4238    5.4338   22.4979 C   0  0  0  0  0  0  0  0  0  0  0  0
   12.5529    5.8919   23.4675 C   0  0  0  0  0  0  0  0  0  0  0  0
   11.4370    5.2275   23.8461 N   0  0  0  0  0  0  0  0  0  0  0  0
   11.1957    4.0507   23.2280 C   0  0  0  0  0  0  0  0  0  0  0  0
   11.3600   -0.2722   22.0874 N   0  0  0  0  0  0  0  0  0  0  0  0
   10.1636   -0.8366   21.7650 C   0  0  0  0  0  0  0  0  0  0  0  0
   10.3460   -2.1573   21.5221 N   0  0  0  0  0  0  0  0  0  0  0  0
    9.0558   -0.1908   21.7853 N   0  0  0  0  0  0  0  0  0  0  0  0
    7.8235   -0.9246   21.4921 C   0  0  0  0  0  0  0  0  0  0  0  0
    7.2067   -0.5590   20.1595 C   0  0  0  0  0  0  0  0  0  0  0  0
    5.9846   -1.1031   19.7431 C   0  0  0  0  0  0  0  0  0  0  0  0
    5.4212   -0.7311   18.5203 C   0  0  0  0  0  0  0  0  0  0  0  0
    6.0645    0.2005   17.7076 C   0  0  0  0  0  0  0  0  0  0  0  0
    7.2666    0.7697   18.1215 C   0  0  0  0  0  0  0  0  0  0  0  0
    7.8304    0.3978   19.3437 C   0  0  0  0  0  0  0  0  0  0  0  0
  2  1  1  1
  2  3  1  0
  2 10  1  0
  3  4  1  0
  4  5  2  0
  4  9  1  0
  5  6  1  0
  6  7  2  0
  7  8  1  0
  8  9  2  0
 10 11  1  0
 11 12  1  0
 11 13  2  0
 13 14  1  0
 14 15  1  0
 15 16  2  0
 15 20  1  0
 16 17  1  0
 17 18  2  0
 18 19  1  0
 19 20  2  0
M  END
>  <CHROM.1>  (50) 
-54.13738625,144.55768318,127.25312378,-109.63863354,-176.34048145,9.93909501
1.34120195,21.40888177,-0.53307395,0.65923771,2.98363496

>  <Name>  (50) 
CC(Cc1cccnc1)NC(N)=NCc1ccccc1

>  <RI>  (50) 
0

>  <Rbt.Current_Directory>  (50) 
/home/gse84885/github/im/docking-validation/targets/mpro/expts/jackall/work/Mpro-x0072_0/work/16/b792d143385678d7c19758af3db4cf

>  <Rbt.Executable>  (50) 
rbdock ($Id: //depot/dev/client3/rdock/2013.1/src/exe/rbdock.cxx#4 $)

>  <Rbt.Library>  (50) 
libRbt.so (2013.1, Build901 2013/11/27)

>  <Rbt.Parameter_File>  (50) 
/rDock_2013.1/data/scripts/dock.prm

>  <Rbt.Receptor>  (50) 
docking-global.prm

>  <SCORE>  (50) 
-13.6869

>  <SCORE.INTER>  (50) 
-12.6294

>  <SCORE.INTER.CONST>  (50) 
1

>  <SCORE.INTER.POLAR>  (50) 
0

>  <SCORE.INTER.REPUL>  (50) 
0

>  <SCORE.INTER.ROT>  (50) 
5

>  <SCORE.INTER.VDW>  (50) 
-23.0294

>  <SCORE.INTER.norm>  (50) 
-0.631468

>  <SCORE.INTRA>  (50) 
-1.0575

>  <SCORE.INTRA.DIHEDRAL>  (50) 
-3.47256

>  <SCORE.INTRA.DIHEDRAL.0>  (50) 
6.0566

>  <SCORE.INTRA.POLAR>  (50) 
0

>  <SCORE.INTRA.POLAR.0>  (50) 
0

>  <SCORE.INTRA.REPUL>  (50) 
0

>  <SCORE.INTRA.REPUL.0>  (50) 
0

>  <SCORE.INTRA.VDW>  (50) 
0.67878

>  <SCORE.INTRA.VDW.0>  (50) 
-1.30653

>  <SCORE.INTRA.norm>  (50) 
-0.052875

>  <SCORE.RESTR>  (50) 
0

>  <SCORE.RESTR.CAVITY>  (50) 
0

>  <SCORE.RESTR.norm>  (50) 
0

>  <SCORE.SYSTEM>  (50) 
0

>  <SCORE.SYSTEM.CONST>  (50) 
0

>  <SCORE.SYSTEM.DIHEDRAL>  (50) 
0

>  <SCORE.SYSTEM.norm>  (50) 
0

>  <SCORE.heavy>  (50) 
20

>  <SCORE.norm>  (50) 
-0.684344

>  <XChemDeepScore>  (50) 
0.979573

>  <SuCOS_Max_Score>  (50) 
0.3607950586721268

>  <SuCOS_Max_FeatureMap_Score>  (50) 
0.080575142302656291

>  <SuCOS_Max_Protrude_Score>  (50) 
0.64101497504159732

>  <SuCOS_Max_Index>  (50) 
5

>  <SuCOS_Cum_Score>  (50) 
1.7475658626604618

>  <SuCOS_Cum_FeatureMap_Score>  (50) 
0.28690669113923606

>  <SuCOS_Cum_Protrude_Score>  (50) 
3.2082250341816883

$$$$
COC(=O)c1ccc(CCC(=O)C(=O)O)cc1
     RDKit          3D

 17 17  0  0  0  0  0  0  0  0999 V2000
    8.7545   -4.2131   26.3863 C   0  0  0  0  0  0  0  0  0  0  0  0
    9.4106   -3.0336   25.9213 O   0  0  0  0  0  0  0  0  0  0  0  0
    9.8630   -3.1219   24.6440 C   0  0  0  0  0  0  0  0  0  0  0  0
    9.6906   -4.0710   23.8954 O   0  0  0  0  0  0  0  0  0  0  0  0
   10.6134   -1.8933   24.2649 C   0  0  0  0  0  0  0  0  0  0  0  0
   11.1720   -1.8317   22.9832 C   0  0  0  0  0  0  0  0  0  0  0  0
   11.8920   -0.7042   22.5812 C   0  0  0  0  0  0  0  0  0  0  0  0
   12.0582    0.3846   23.4477 C   0  0  0  0  0  0  0  0  0  0  0  0
   12.8434    1.6022   23.0102 C   0  0  0  0  0  0  0  0  0  0  0  0
   11.9483    2.7592   22.5699 C   0  0  0  0  0  0  0  0  0  0  0  0
   12.7593    3.9561   22.1300 C   0  0  0  0  0  0  0  0  0  0  0  0
   12.9836    4.2410   20.9530 O   0  0  0  0  0  0  0  0  0  0  0  0
   13.3271    4.8698   23.2251 C   0  0  0  0  0  0  0  0  0  0  0  0
   13.0778    4.4996   24.4181 O   0  0  0  0  0  0  0  0  0  0  0  0
   13.9820    5.8990   22.8701 O   0  0  0  0  0  0  0  0  0  0  0  0
   11.5038    0.3165   24.7326 C   0  0  0  0  0  0  0  0  0  0  0  0
   10.7853   -0.8131   25.1400 C   0  0  0  0  0  0  0  0  0  0  0  0
  1  2  1  0
  2  3  1  0
  3  4  2  0
  3  5  1  0
  5  6  2  0
  5 17  1  0
  6  7  1  0
  7  8  2  0
  8  9  1  0
  8 16  1  0
  9 10  1  0
 10 11  1  0
 11 12  2  0
 11 13  1  0
 13 14  2  0
 13 15  1  0
 16 17  2  0
M  END
>  <CHROM.1>  (51) 
3.71081313,178.78713561,100.40092794,-179.59986971,100.27656902,1.62780010
11.56464869,0.54970314,23.72811179,2.89977824,-1.15127626,-2.12747544

>  <Name>  (51) 
COC(=O)c1ccc(CCC(=O)C(=O)O)cc1

>  <RI>  (51) 
0

>  <Rbt.Current_Directory>  (51) 
/home/gse84885/github/im/docking-validation/targets/mpro/expts/jackall/work/Mpro-x0072_0/work/04/6078a2ad77c8c94a751a554cf370dc

>  <Rbt.Executable>  (51) 
rbdock ($Id: //depot/dev/client3/rdock/2013.1/src/exe/rbdock.cxx#4 $)

>  <Rbt.Library>  (51) 
libRbt.so (2013.1, Build901 2013/11/27)

>  <Rbt.Parameter_File>  (51) 
/rDock_2013.1/data/scripts/dock.prm

>  <Rbt.Receptor>  (51) 
docking-global.prm

>  <SCORE>  (51) 
-6.60897

>  <SCORE.INTER>  (51) 
-5.53791

>  <SCORE.INTER.CONST>  (51) 
1

>  <SCORE.INTER.POLAR>  (51) 
0

>  <SCORE.INTER.REPUL>  (51) 
0

>  <SCORE.INTER.ROT>  (51) 
6

>  <SCORE.INTER.VDW>  (51) 
-16.9379

>  <SCORE.INTER.norm>  (51) 
-0.32576

>  <SCORE.INTRA>  (51) 
-1.07106

>  <SCORE.INTRA.DIHEDRAL>  (51) 
-0.2066

>  <SCORE.INTRA.DIHEDRAL.0>  (51) 
3.19921

>  <SCORE.INTRA.POLAR>  (51) 
0

>  <SCORE.INTRA.POLAR.0>  (51) 
0

>  <SCORE.INTRA.REPUL>  (51) 
0

>  <SCORE.INTRA.REPUL.0>  (51) 
0

>  <SCORE.INTRA.VDW>  (51) 
-0.967755

>  <SCORE.INTRA.VDW.0>  (51) 
2.55975

>  <SCORE.INTRA.norm>  (51) 
-0.0630033

>  <SCORE.RESTR>  (51) 
0

>  <SCORE.RESTR.CAVITY>  (51) 
0

>  <SCORE.RESTR.norm>  (51) 
0

>  <SCORE.SYSTEM>  (51) 
0

>  <SCORE.SYSTEM.CONST>  (51) 
0

>  <SCORE.SYSTEM.DIHEDRAL>  (51) 
0

>  <SCORE.SYSTEM.norm>  (51) 
0

>  <SCORE.heavy>  (51) 
17

>  <SCORE.norm>  (51) 
-0.388763

>  <XChemDeepScore>  (51) 
0.979519

>  <SuCOS_Max_Score>  (51) 
0.39171652002731183

>  <SuCOS_Max_FeatureMap_Score>  (51) 
0.25196886559979487

>  <SuCOS_Max_Protrude_Score>  (51) 
0.53146417445482874

>  <SuCOS_Max_Index>  (51) 
1

>  <SuCOS_Cum_Score>  (51) 
2.1475345888882473

>  <SuCOS_Cum_FeatureMap_Score>  (51) 
1.0653945567867364

>  <SuCOS_Cum_Protrude_Score>  (51) 
3.2296746209897584

$$$$
O=C(O)C=C(CCc1ccccc1)c1cccnc1
     RDKit          3D

 19 20  0  0  0  0  0  0  0  0999 V2000
   13.9610   -2.2005   21.8477 O   0  0  0  0  0  0  0  0  0  0  0  0
   13.5457   -1.0577   22.1863 C   0  0  0  0  0  0  0  0  0  0  0  0
   14.1281   -0.1536   22.8408 O   0  0  0  0  0  0  0  0  0  0  0  0
   12.1109   -0.7709   21.7355 C   0  0  0  0  0  0  0  0  0  0  0  0
   11.3440    0.3228   21.9027 C   0  0  0  0  0  0  0  0  0  0  0  0
   11.7067    1.6098   22.6120 C   0  0  0  0  0  0  0  0  0  0  0  0
   11.9181    2.8091   21.6761 C   0  0  0  0  0  0  0  0  0  0  0  0
   12.2757    4.0704   22.4350 C   0  0  0  0  0  0  0  0  0  0  0  0
   11.4714    4.5104   23.4950 C   0  0  0  0  0  0  0  0  0  0  0  0
   11.7945    5.6762   24.1939 C   0  0  0  0  0  0  0  0  0  0  0  0
   12.9204    6.4159   23.8353 C   0  0  0  0  0  0  0  0  0  0  0  0
   13.7229    5.9907   22.7773 C   0  0  0  0  0  0  0  0  0  0  0  0
   13.4016    4.8243   22.0794 C   0  0  0  0  0  0  0  0  0  0  0  0
    9.9712    0.2382   21.3759 C   0  0  0  0  0  0  0  0  0  0  0  0
    9.1679    1.3767   21.2791 C   0  0  0  0  0  0  0  0  0  0  0  0
    7.8543    1.2566   20.8323 C   0  0  0  0  0  0  0  0  0  0  0  0
    7.3893   -0.0043   20.4920 C   0  0  0  0  0  0  0  0  0  0  0  0
    8.1325   -1.1299   20.5624 N   0  0  0  0  0  0  0  0  0  0  0  0
    9.4043   -0.9806   21.0145 C   0  0  0  0  0  0  0  0  0  0  0  0
  1  2  2  0
  2  3  1  0
  2  4  1  0
  4  5  2  0
  5  6  1  0
  5 14  1  0
  6  7  1  0
  7  8  1  0
  8  9  2  0
  8 13  1  0
  9 10  1  0
 10 11  2  0
 11 12  1  0
 12 13  2  0
 14 15  2  0
 14 19  1  0
 15 16  1  0
 16 17  2  0
 17 18  1  0
 18 19  2  0
M  END
>  <CHROM.1>  (52) 
-179.61176900,108.47735955,-168.61169227,179.88149725,-52.62096472,11.42728253
1.66387952,22.06460012,-2.01283111,-0.26323097,0.20682630

>  <Name>  (52) 
O=C(O)C=C(CCc1ccccc1)c1cccnc1

>  <RI>  (52) 
0

>  <Rbt.Current_Directory>  (52) 
/home/gse84885/github/im/docking-validation/targets/mpro/expts/jackall/work/Mpro-x0072_0/work/f1/5b4cbd033eef16b0a2522d6e8a7325

>  <Rbt.Executable>  (52) 
rbdock ($Id: //depot/dev/client3/rdock/2013.1/src/exe/rbdock.cxx#4 $)

>  <Rbt.Library>  (52) 
libRbt.so (2013.1, Build901 2013/11/27)

>  <Rbt.Parameter_File>  (52) 
/rDock_2013.1/data/scripts/dock.prm

>  <Rbt.Receptor>  (52) 
docking-global.prm

>  <SCORE>  (52) 
-14.914

>  <SCORE.INTER>  (52) 
-10.6469

>  <SCORE.INTER.CONST>  (52) 
1

>  <SCORE.INTER.POLAR>  (52) 
0

>  <SCORE.INTER.REPUL>  (52) 
0

>  <SCORE.INTER.ROT>  (52) 
5

>  <SCORE.INTER.VDW>  (52) 
-21.0469

>  <SCORE.INTER.norm>  (52) 
-0.560364

>  <SCORE.INTRA>  (52) 
-4.26705

>  <SCORE.INTRA.DIHEDRAL>  (52) 
-14.6183

>  <SCORE.INTRA.DIHEDRAL.0>  (52) 
16.3975

>  <SCORE.INTRA.POLAR>  (52) 
0

>  <SCORE.INTRA.POLAR.0>  (52) 
0

>  <SCORE.INTRA.REPUL>  (52) 
0

>  <SCORE.INTRA.REPUL.0>  (52) 
0

>  <SCORE.INTRA.VDW>  (52) 
3.0421

>  <SCORE.INTRA.VDW.0>  (52) 
-1.75195

>  <SCORE.INTRA.norm>  (52) 
-0.224581

>  <SCORE.RESTR>  (52) 
0

>  <SCORE.RESTR.CAVITY>  (52) 
0

>  <SCORE.RESTR.norm>  (52) 
0

>  <SCORE.SYSTEM>  (52) 
0

>  <SCORE.SYSTEM.CONST>  (52) 
0

>  <SCORE.SYSTEM.DIHEDRAL>  (52) 
0

>  <SCORE.SYSTEM.norm>  (52) 
0

>  <SCORE.heavy>  (52) 
19

>  <SCORE.norm>  (52) 
-0.784945

>  <XChemDeepScore>  (52) 
0.979310

>  <SuCOS_Max_Score>  (52) 
0.35941838770063472

>  <SuCOS_Max_FeatureMap_Score>  (52) 
0.16830980701937234

>  <SuCOS_Max_Protrude_Score>  (52) 
0.55052696838189707

>  <SuCOS_Max_Index>  (52) 
1

>  <SuCOS_Cum_Score>  (52) 
1.742667961903547

>  <SuCOS_Cum_FeatureMap_Score>  (52) 
0.41331945576715307

>  <SuCOS_Cum_Protrude_Score>  (52) 
3.0720164680399407

$$$$
CC(O)(COCc1ccccc1)C(=O)Cc1ccncc1
     RDKit          3D

 21 22  0  0  0  0  0  0  0  0999 V2000
   11.7807    0.0889   24.3349 C   0  0  0  0  0  0  0  0  0  0  0  0
   10.5783   -0.5464   23.6321 C   0  0  1  0  0  0  0  0  0  0  0  0
    9.4561   -0.5084   24.5342 O   0  0  0  0  0  0  0  0  0  0  0  0
   10.2288    0.2189   22.3400 C   0  0  0  0  0  0  0  0  0  0  0  0
    9.0999   -0.3750   21.7053 O   0  0  0  0  0  0  0  0  0  0  0  0
    8.7113    0.3343   20.5311 C   0  0  0  0  0  0  0  0  0  0  0  0
    7.5805   -0.4103   19.8736 C   0  0  0  0  0  0  0  0  0  0  0  0
    7.3925   -0.3268   18.4868 C   0  0  0  0  0  0  0  0  0  0  0  0
    6.3610   -1.0323   17.8660 C   0  0  0  0  0  0  0  0  0  0  0  0
    5.4980   -1.8179   18.6297 C   0  0  0  0  0  0  0  0  0  0  0  0
    5.6697   -1.9018   20.0103 C   0  0  0  0  0  0  0  0  0  0  0  0
    6.7059   -1.2003   20.6301 C   0  0  0  0  0  0  0  0  0  0  0  0
   10.8175   -2.0401   23.3175 C   0  0  0  0  0  0  0  0  0  0  0  0
   11.8925   -2.4769   22.8911 O   0  0  0  0  0  0  0  0  0  0  0  0
    9.6414   -2.9859   23.4806 C   0  0  0  0  0  0  0  0  0  0  0  0
    9.6579   -3.7102   24.8086 C   0  0  0  0  0  0  0  0  0  0  0  0
   10.3465   -4.9181   24.9540 C   0  0  0  0  0  0  0  0  0  0  0  0
   10.3372   -5.5664   26.1828 C   0  0  0  0  0  0  0  0  0  0  0  0
    9.6646   -5.0348   27.2154 N   0  0  0  0  0  0  0  0  0  0  0  0
    8.9663   -3.8934   27.1073 C   0  0  0  0  0  0  0  0  0  0  0  0
    8.9394   -3.2091   25.8990 C   0  0  0  0  0  0  0  0  0  0  0  0
  2  1  1  1
  2  3  1  0
  2  4  1  0
  2 13  1  0
  4  5  1  0
  5  6  1  0
  6  7  1  0
  7  8  2  0
  7 12  1  0
  8  9  1  0
  9 10  2  0
 10 11  1  0
 11 12  2  0
 13 14  2  0
 13 15  1  0
 15 16  1  0
 16 17  2  0
 16 21  1  0
 17 18  1  0
 18 19  2  0
 19 20  1  0
 20 21  2  0
M  END
>  <CHROM.1>  (53) 
-179.37592464,-41.50365785,177.77152811,176.07260955,-151.60339446,-97.63153171
-87.97589448,9.06937561,-1.92849810,22.80816289,-1.03355665,-0.65665947,-0.78782360

>  <Name>  (53) 
CC(O)(COCc1ccccc1)C(=O)Cc1ccncc1

>  <RI>  (53) 
0

>  <Rbt.Current_Directory>  (53) 
/home/gse84885/github/im/docking-validation/targets/mpro/expts/jackall/work/Mpro-x0072_0/work/f1/e120e154ffcfc4c6dfdcf537ba0c5b

>  <Rbt.Executable>  (53) 
rbdock ($Id: //depot/dev/client3/rdock/2013.1/src/exe/rbdock.cxx#4 $)

>  <Rbt.Library>  (53) 
libRbt.so (2013.1, Build901 2013/11/27)

>  <Rbt.Parameter_File>  (53) 
/rDock_2013.1/data/scripts/dock.prm

>  <Rbt.Receptor>  (53) 
docking-global.prm

>  <SCORE>  (53) 
-10.2401

>  <SCORE.INTER>  (53) 
-10.5033

>  <SCORE.INTER.CONST>  (53) 
1

>  <SCORE.INTER.POLAR>  (53) 
0

>  <SCORE.INTER.REPUL>  (53) 
0

>  <SCORE.INTER.ROT>  (53) 
7

>  <SCORE.INTER.VDW>  (53) 
-22.9033

>  <SCORE.INTER.norm>  (53) 
-0.500155

>  <SCORE.INTRA>  (53) 
0.263122

>  <SCORE.INTRA.DIHEDRAL>  (53) 
1.71757

>  <SCORE.INTRA.DIHEDRAL.0>  (53) 
3.84916

>  <SCORE.INTRA.POLAR>  (53) 
0

>  <SCORE.INTRA.POLAR.0>  (53) 
0

>  <SCORE.INTRA.REPUL>  (53) 
0

>  <SCORE.INTRA.REPUL.0>  (53) 
0

>  <SCORE.INTRA.VDW>  (53) 
-0.595664

>  <SCORE.INTRA.VDW.0>  (53) 
-0.751195

>  <SCORE.INTRA.norm>  (53) 
0.0125296

>  <SCORE.RESTR>  (53) 
0

>  <SCORE.RESTR.CAVITY>  (53) 
0

>  <SCORE.RESTR.norm>  (53) 
0

>  <SCORE.SYSTEM>  (53) 
0

>  <SCORE.SYSTEM.CONST>  (53) 
0

>  <SCORE.SYSTEM.DIHEDRAL>  (53) 
0

>  <SCORE.SYSTEM.norm>  (53) 
0

>  <SCORE.heavy>  (53) 
21

>  <SCORE.norm>  (53) 
-0.487625

>  <XChemDeepScore>  (53) 
0.979195

>  <SuCOS_Max_Score>  (53) 
0.35521038884337502

>  <SuCOS_Max_FeatureMap_Score>  (53) 
0.036344970480385992

>  <SuCOS_Max_Protrude_Score>  (53) 
0.67407580720636406

>  <SuCOS_Max_Index>  (53) 
0

>  <SuCOS_Cum_Score>  (53) 
1.6195210560498765

>  <SuCOS_Cum_FeatureMap_Score>  (53) 
0.16609380503530824

>  <SuCOS_Cum_Protrude_Score>  (53) 
3.0729483070644452

$$$$
CC(C)(CN=C(N)NCc1ccccc1)c1ccncc1
     RDKit          3D

 21 22  0  0  0  0  0  0  0  0999 V2000
    9.9812   -0.7473   25.5353 C   0  0  0  0  0  0  0  0  0  0  0  0
    9.6700   -1.9152   24.5668 C   0  0  0  0  0  0  0  0  0  0  0  0
    8.2722   -1.6205   23.9665 C   0  0  0  0  0  0  0  0  0  0  0  0
   10.7454   -1.9645   23.4402 C   0  0  0  0  0  0  0  0  0  0  0  0
   10.9354   -0.6498   22.8197 N   0  0  0  0  0  0  0  0  0  0  0  0
   12.0830   -0.2636   22.3908 C   0  0  0  0  0  0  0  0  0  0  0  0
   13.2550   -0.9408   22.4500 N   0  0  0  0  0  0  0  0  0  0  0  0
   12.2732    0.9475   21.8039 N   0  0  0  0  0  0  0  0  0  0  0  0
   11.4611    2.1186   22.0587 C   0  0  0  0  0  0  0  0  0  0  0  0
   12.3199    3.3250   22.3581 C   0  0  0  0  0  0  0  0  0  0  0  0
   12.8114    4.1174   21.3106 C   0  0  0  0  0  0  0  0  0  0  0  0
   13.5730    5.2570   21.5757 C   0  0  0  0  0  0  0  0  0  0  0  0
   13.8471    5.6239   22.8922 C   0  0  0  0  0  0  0  0  0  0  0  0
   13.3550    4.8540   23.9442 C   0  0  0  0  0  0  0  0  0  0  0  0
   12.5944    3.7113   23.6799 C   0  0  0  0  0  0  0  0  0  0  0  0
    9.6880   -3.2790   25.2974 C   0  0  0  0  0  0  0  0  0  0  0  0
    9.0145   -3.4775   26.5138 C   0  0  0  0  0  0  0  0  0  0  0  0
    9.0577   -4.7223   27.1305 C   0  0  0  0  0  0  0  0  0  0  0  0
    9.7053   -5.7896   26.6266 N   0  0  0  0  0  0  0  0  0  0  0  0
   10.3298   -5.6025   25.4481 C   0  0  0  0  0  0  0  0  0  0  0  0
   10.3415   -4.3968   24.7568 C   0  0  0  0  0  0  0  0  0  0  0  0
  1  2  1  0
  2  3  1  0
  2  4  1  0
  2 16  1  0
  4  5  1  0
  5  6  2  0
  6  7  1  0
  6  8  1  0
  8  9  1  0
  9 10  1  0
 10 11  2  0
 10 15  1  0
 11 12  1  0
 12 13  2  0
 13 14  1  0
 14 15  2  0
 16 17  2  0
 16 21  1  0
 17 18  1  0
 18 19  2  0
 19 20  1  0
 20 21  2  0
M  END
>  <CHROM.1>  (54) 
-50.12627851,47.62267217,145.94063735,130.65451025,86.23774934,11.18328382
-0.28391703,23.83864420,2.36664266,-1.04727889,-2.79939433

>  <Name>  (54) 
CC(C)(CN=C(N)NCc1ccccc1)c1ccncc1

>  <RI>  (54) 
0

>  <Rbt.Current_Directory>  (54) 
/home/gse84885/github/im/docking-validation/targets/mpro/expts/jackall/work/Mpro-x0072_0/work/78/bf14a5d7ec471157091acd9bef165a

>  <Rbt.Executable>  (54) 
rbdock ($Id: //depot/dev/client3/rdock/2013.1/src/exe/rbdock.cxx#4 $)

>  <Rbt.Library>  (54) 
libRbt.so (2013.1, Build901 2013/11/27)

>  <Rbt.Parameter_File>  (54) 
/rDock_2013.1/data/scripts/dock.prm

>  <Rbt.Receptor>  (54) 
docking-global.prm

>  <SCORE>  (54) 
-12.0144

>  <SCORE.INTER>  (54) 
-13.2062

>  <SCORE.INTER.CONST>  (54) 
1

>  <SCORE.INTER.POLAR>  (54) 
0

>  <SCORE.INTER.REPUL>  (54) 
0

>  <SCORE.INTER.ROT>  (54) 
5

>  <SCORE.INTER.VDW>  (54) 
-23.6062

>  <SCORE.INTER.norm>  (54) 
-0.628868

>  <SCORE.INTRA>  (54) 
1.19179

>  <SCORE.INTRA.DIHEDRAL>  (54) 
1.24787

>  <SCORE.INTRA.DIHEDRAL.0>  (54) 
1.53249

>  <SCORE.INTRA.POLAR>  (54) 
0

>  <SCORE.INTRA.POLAR.0>  (54) 
0

>  <SCORE.INTRA.REPUL>  (54) 
0

>  <SCORE.INTRA.REPUL.0>  (54) 
0

>  <SCORE.INTRA.VDW>  (54) 
0.567854

>  <SCORE.INTRA.VDW.0>  (54) 
0.882071

>  <SCORE.INTRA.norm>  (54) 
0.0567519

>  <SCORE.RESTR>  (54) 
0

>  <SCORE.RESTR.CAVITY>  (54) 
0

>  <SCORE.RESTR.norm>  (54) 
0

>  <SCORE.SYSTEM>  (54) 
0

>  <SCORE.SYSTEM.CONST>  (54) 
0

>  <SCORE.SYSTEM.DIHEDRAL>  (54) 
0

>  <SCORE.SYSTEM.norm>  (54) 
0

>  <SCORE.heavy>  (54) 
21

>  <SCORE.norm>  (54) 
-0.572116

>  <XChemDeepScore>  (54) 
0.979063

>  <SuCOS_Max_Score>  (54) 
0.36657961136237538

>  <SuCOS_Max_FeatureMap_Score>  (54) 
0.020981236776272939

>  <SuCOS_Max_Protrude_Score>  (54) 
0.71217798594847781

>  <SuCOS_Max_Index>  (54) 
0

>  <SuCOS_Cum_Score>  (54) 
1.7091837727339525

>  <SuCOS_Cum_FeatureMap_Score>  (54) 
0.088975543139344665

>  <SuCOS_Cum_Protrude_Score>  (54) 
3.3293920023285608

$$$$
CCCC(NS(=O)(=O)c1ccccc1)C(=N)N
     RDKit          3D

 17 17  0  0  0  0  0  0  0  0999 V2000
    8.5309    5.2533   23.2200 C   0  0  0  0  0  0  0  0  0  0  0  0
    9.8840    4.9778   23.8535 C   0  0  0  0  0  0  0  0  0  0  0  0
   10.7090    3.9128   23.1247 C   0  0  0  0  0  0  0  0  0  0  0  0
   12.1100    3.6232   23.6982 C   0  0  1  0  0  0  0  0  0  0  0  0
   12.9073    2.6471   22.9372 N   0  0  0  0  0  0  0  0  0  0  0  0
   13.0220    1.1468   23.4713 S   0  0  0  0  0  0  0  0  0  0  0  0
   14.2557    0.4800   23.0553 O   0  0  0  0  0  0  0  0  0  0  0  0
   12.6633    0.9104   24.8657 O   0  0  0  0  0  0  0  0  0  0  0  0
   11.7769    0.1890   22.5657 C   0  0  0  0  0  0  0  0  0  0  0  0
   10.8372    0.8695   21.7884 C   0  0  0  0  0  0  0  0  0  0  0  0
    9.8119    0.1497   21.1782 C   0  0  0  0  0  0  0  0  0  0  0  0
    9.7317   -1.2356   21.3492 C   0  0  0  0  0  0  0  0  0  0  0  0
   10.6948   -1.9094   22.1034 C   0  0  0  0  0  0  0  0  0  0  0  0
   11.7358   -1.1992   22.6976 C   0  0  0  0  0  0  0  0  0  0  0  0
   12.9357    4.8655   24.0369 C   0  0  0  0  0  0  0  0  0  0  0  0
   13.0052    5.4038   25.2180 N   0  0  0  0  0  0  0  0  0  0  0  0
   13.6320    5.4718   23.0325 N   0  0  0  0  0  0  0  0  0  0  0  0
  1  2  1  0
  2  3  1  0
  4  3  1  6
  4  5  1  0
  4 15  1  0
  5  6  1  0
  6  7  2  0
  6  8  2  0
  6  9  1  0
  9 10  2  0
  9 14  1  0
 10 11  1  0
 11 12  2  0
 12 13  1  0
 13 14  2  0
 15 16  2  0
 15 17  1  0
M  END
>  <CHROM.1>  (55) 
178.17741185,-176.94097293,-101.59621919,95.43058765,-152.83878957,-10.20295323
11.78342029,2.05608444,23.13231612,1.47637719,-0.32488309,0.25246257

>  <Name>  (55) 
CCCC(NS(=O)(=O)c1ccccc1)C(=N)N

>  <RI>  (55) 
0

>  <Rbt.Current_Directory>  (55) 
/home/gse84885/github/im/docking-validation/targets/mpro/expts/jackall/work/Mpro-x0072_0/work/0d/e145b6335062adb182f8aa36ce5dba

>  <Rbt.Executable>  (55) 
rbdock ($Id: //depot/dev/client3/rdock/2013.1/src/exe/rbdock.cxx#4 $)

>  <Rbt.Library>  (55) 
libRbt.so (2013.1, Build901 2013/11/27)

>  <Rbt.Parameter_File>  (55) 
/rDock_2013.1/data/scripts/dock.prm

>  <Rbt.Receptor>  (55) 
docking-global.prm

>  <SCORE>  (55) 
-8.59423

>  <SCORE.INTER>  (55) 
-8.38054

>  <SCORE.INTER.CONST>  (55) 
1

>  <SCORE.INTER.POLAR>  (55) 
0

>  <SCORE.INTER.REPUL>  (55) 
0.0323148

>  <SCORE.INTER.ROT>  (55) 
6

>  <SCORE.INTER.VDW>  (55) 
-19.9421

>  <SCORE.INTER.norm>  (55) 
-0.492973

>  <SCORE.INTRA>  (55) 
-0.213691

>  <SCORE.INTRA.DIHEDRAL>  (55) 
-1.53637

>  <SCORE.INTRA.DIHEDRAL.0>  (55) 
5.40823

>  <SCORE.INTRA.POLAR>  (55) 
0

>  <SCORE.INTRA.POLAR.0>  (55) 
0

>  <SCORE.INTRA.REPUL>  (55) 
0

>  <SCORE.INTRA.REPUL.0>  (55) 
0

>  <SCORE.INTRA.VDW>  (55) 
0.554496

>  <SCORE.INTRA.VDW.0>  (55) 
-3.17426

>  <SCORE.INTRA.norm>  (55) 
-0.0125701

>  <SCORE.RESTR>  (55) 
0

>  <SCORE.RESTR.CAVITY>  (55) 
0

>  <SCORE.RESTR.norm>  (55) 
0

>  <SCORE.SYSTEM>  (55) 
0

>  <SCORE.SYSTEM.CONST>  (55) 
0

>  <SCORE.SYSTEM.DIHEDRAL>  (55) 
0

>  <SCORE.SYSTEM.norm>  (55) 
0

>  <SCORE.heavy>  (55) 
17

>  <SCORE.norm>  (55) 
-0.505543

>  <XChemDeepScore>  (55) 
0.978715

>  <SuCOS_Max_Score>  (55) 
0.39685387406092815

>  <SuCOS_Max_FeatureMap_Score>  (55) 
0.078132649764994497

>  <SuCOS_Max_Protrude_Score>  (55) 
0.71557509835686184

>  <SuCOS_Max_Index>  (55) 
2

>  <SuCOS_Cum_Score>  (55) 
1.9276160240749396

>  <SuCOS_Cum_FeatureMap_Score>  (55) 
0.39431674441748099

>  <SuCOS_Cum_Protrude_Score>  (55) 
3.4609153037323992

$$$$
COC(=O)c1cccc(C=CC(=O)C(=O)O)c1
     RDKit          3D

 17 17  0  0  0  0  0  0  0  0999 V2000
    9.7353   -4.9986   25.1045 C   0  0  0  0  0  0  0  0  0  0  0  0
   10.3888   -4.0002   24.3236 O   0  0  0  0  0  0  0  0  0  0  0  0
   10.1933   -2.7293   24.7510 C   0  0  0  0  0  0  0  0  0  0  0  0
    9.4969   -2.3905   25.6953 O   0  0  0  0  0  0  0  0  0  0  0  0
   10.9402   -1.7723   23.8900 C   0  0  0  0  0  0  0  0  0  0  0  0
   11.5002   -2.2466   22.6978 C   0  0  0  0  0  0  0  0  0  0  0  0
   12.2461   -1.3907   21.8877 C   0  0  0  0  0  0  0  0  0  0  0  0
   12.4369   -0.0587   22.2662 C   0  0  0  0  0  0  0  0  0  0  0  0
   11.8681    0.4397   23.4453 C   0  0  0  0  0  0  0  0  0  0  0  0
   12.1297    1.8321   23.8377 C   0  0  0  0  0  0  0  0  0  0  0  0
   12.7278    2.7302   23.0403 C   0  0  0  0  0  0  0  0  0  0  0  0
   12.9394    4.1379   23.4837 C   0  0  0  0  0  0  0  0  0  0  0  0
   12.6830    4.5203   24.6264 O   0  0  0  0  0  0  0  0  0  0  0  0
   13.4916    5.1593   22.4631 C   0  0  0  0  0  0  0  0  0  0  0  0
   13.7976    4.6804   21.3215 O   0  0  0  0  0  0  0  0  0  0  0  0
   13.5960    6.3742   22.8239 O   0  0  0  0  0  0  0  0  0  0  0  0
   11.1230   -0.4302   24.2545 C   0  0  0  0  0  0  0  0  0  0  0  0
  1  2  1  0
  2  3  1  0
  3  4  2  0
  3  5  1  0
  5  6  2  0
  5 17  1  0
  6  7  1  0
  7  8  2  0
  8  9  1  0
  9 10  1  0
  9 17  2  0
 10 11  2  0
 11 12  1  0
 12 13  2  0
 12 14  1  0
 14 15  2  0
 14 16  1  0
M  END
>  <CHROM.1>  (56) 
-2.06246581,10.93376288,9.99031317,6.12153309,-3.89507808,11.83132799,0.60183804
23.55108808,2.31165762,-1.04488505,-2.67025874

>  <Name>  (56) 
COC(=O)c1cccc(C=CC(=O)C(=O)O)c1

>  <RI>  (56) 
0

>  <Rbt.Current_Directory>  (56) 
/home/gse84885/github/im/docking-validation/targets/mpro/expts/jackall/work/Mpro-x0072_0/work/d9/420ac13c006ee4167f144e26685f76

>  <Rbt.Executable>  (56) 
rbdock ($Id: //depot/dev/client3/rdock/2013.1/src/exe/rbdock.cxx#4 $)

>  <Rbt.Library>  (56) 
libRbt.so (2013.1, Build901 2013/11/27)

>  <Rbt.Parameter_File>  (56) 
/rDock_2013.1/data/scripts/dock.prm

>  <Rbt.Receptor>  (56) 
docking-global.prm

>  <SCORE>  (56) 
-8.47426

>  <SCORE.INTER>  (56) 
-7.76987

>  <SCORE.INTER.CONST>  (56) 
1

>  <SCORE.INTER.POLAR>  (56) 
0

>  <SCORE.INTER.REPUL>  (56) 
0.0160053

>  <SCORE.INTER.ROT>  (56) 
5

>  <SCORE.INTER.VDW>  (56) 
-18.2499

>  <SCORE.INTER.norm>  (56) 
-0.457051

>  <SCORE.INTRA>  (56) 
-0.704391

>  <SCORE.INTRA.DIHEDRAL>  (56) 
-2.51209

>  <SCORE.INTRA.DIHEDRAL.0>  (56) 
3.55997

>  <SCORE.INTRA.POLAR>  (56) 
0

>  <SCORE.INTRA.POLAR.0>  (56) 
0

>  <SCORE.INTRA.REPUL>  (56) 
0

>  <SCORE.INTRA.REPUL.0>  (56) 
0

>  <SCORE.INTRA.VDW>  (56) 
0.551654

>  <SCORE.INTRA.VDW.0>  (56) 
1.76128

>  <SCORE.INTRA.norm>  (56) 
-0.0414348

>  <SCORE.RESTR>  (56) 
0

>  <SCORE.RESTR.CAVITY>  (56) 
0

>  <SCORE.RESTR.norm>  (56) 
0

>  <SCORE.SYSTEM>  (56) 
0

>  <SCORE.SYSTEM.CONST>  (56) 
0

>  <SCORE.SYSTEM.DIHEDRAL>  (56) 
0

>  <SCORE.SYSTEM.norm>  (56) 
0

>  <SCORE.heavy>  (56) 
17

>  <SCORE.norm>  (56) 
-0.498486

>  <XChemDeepScore>  (56) 
0.978594

>  <SuCOS_Max_Score>  (56) 
0.49472271784363675

>  <SuCOS_Max_FeatureMap_Score>  (56) 
0.40865940948640012

>  <SuCOS_Max_Protrude_Score>  (56) 
0.58078602620087338

>  <SuCOS_Max_Index>  (56) 
1

>  <SuCOS_Cum_Score>  (56) 
2.3612076178031214

>  <SuCOS_Cum_FeatureMap_Score>  (56) 
1.3657106669716592

>  <SuCOS_Cum_Protrude_Score>  (56) 
3.356704568634584

$$$$
CC(CCc1cccnc1)C(=O)c1ccccc1
     RDKit          3D

 18 19  0  0  0  0  0  0  0  0999 V2000
   11.5529    0.5697   22.3500 C   0  0  0  0  0  0  0  0  0  0  0  0
   10.6311    1.6303   21.7397 C   0  0  1  0  0  0  0  0  0  0  0  0
    9.2463    0.9816   21.4918 C   0  0  0  0  0  0  0  0  0  0  0  0
    9.2347   -0.0960   20.4004 C   0  0  0  0  0  0  0  0  0  0  0  0
    7.8434   -0.6181   20.1369 C   0  0  0  0  0  0  0  0  0  0  0  0
    7.1946   -0.3743   18.9222 C   0  0  0  0  0  0  0  0  0  0  0  0
    5.9171   -0.8817   18.7035 C   0  0  0  0  0  0  0  0  0  0  0  0
    5.3196   -1.6131   19.7160 C   0  0  0  0  0  0  0  0  0  0  0  0
    5.9039   -1.8565   20.9088 N   0  0  0  0  0  0  0  0  0  0  0  0
    7.1462   -1.3530   21.0916 C   0  0  0  0  0  0  0  0  0  0  0  0
   10.5295    2.8325   22.6817 C   0  0  0  0  0  0  0  0  0  0  0  0
    9.5464    3.0031   23.4030 O   0  0  0  0  0  0  0  0  0  0  0  0
   11.6299    3.8478   22.7291 C   0  0  0  0  0  0  0  0  0  0  0  0
   12.6665    3.7337   21.7901 C   0  0  0  0  0  0  0  0  0  0  0  0
   13.7000    4.6722   21.7532 C   0  0  0  0  0  0  0  0  0  0  0  0
   13.6971    5.7467   22.6390 C   0  0  0  0  0  0  0  0  0  0  0  0
   12.6724    5.8700   23.5750 C   0  0  0  0  0  0  0  0  0  0  0  0
   11.6498    4.9166   23.6334 C   0  0  0  0  0  0  0  0  0  0  0  0
  2  1  1  1
  2  3  1  0
  2 11  1  0
  3  4  1  0
  4  5  1  0
  5  6  2  0
  5 10  1  0
  6  7  1  0
  7  8  2  0
  8  9  1  0
  9 10  2  0
 11 12  2  0
 11 13  1  0
 13 14  2  0
 13 18  1  0
 14 15  1  0
 15 16  2  0
 16 17  1  0
 17 18  2  0
M  END
>  <CHROM.1>  (57) 
-67.72917339,-101.94993634,-175.88429382,112.61011437,6.72003669,9.77094811
1.69976908,21.55553748,-0.70742892,-0.46648821,-2.20333091

>  <Name>  (57) 
CC(CCc1cccnc1)C(=O)c1ccccc1

>  <RI>  (57) 
0

>  <Rbt.Current_Directory>  (57) 
/home/gse84885/github/im/docking-validation/targets/mpro/expts/jackall/work/Mpro-x0072_0/work/f7/5ee94e609120b687454cd098917d2d

>  <Rbt.Executable>  (57) 
rbdock ($Id: //depot/dev/client3/rdock/2013.1/src/exe/rbdock.cxx#4 $)

>  <Rbt.Library>  (57) 
libRbt.so (2013.1, Build901 2013/11/27)

>  <Rbt.Parameter_File>  (57) 
/rDock_2013.1/data/scripts/dock.prm

>  <Rbt.Receptor>  (57) 
docking-global.prm

>  <SCORE>  (57) 
-9.75603

>  <SCORE.INTER>  (57) 
-9.73604

>  <SCORE.INTER.CONST>  (57) 
1

>  <SCORE.INTER.POLAR>  (57) 
0

>  <SCORE.INTER.REPUL>  (57) 
0

>  <SCORE.INTER.ROT>  (57) 
5

>  <SCORE.INTER.VDW>  (57) 
-20.136

>  <SCORE.INTER.norm>  (57) 
-0.540891

>  <SCORE.INTRA>  (57) 
-0.0199898

>  <SCORE.INTRA.DIHEDRAL>  (57) 
-2.86996

>  <SCORE.INTRA.DIHEDRAL.0>  (57) 
5.29084

>  <SCORE.INTRA.POLAR>  (57) 
0

>  <SCORE.INTRA.POLAR.0>  (57) 
0

>  <SCORE.INTRA.REPUL>  (57) 
0

>  <SCORE.INTRA.REPUL.0>  (57) 
0

>  <SCORE.INTRA.VDW>  (57) 
1.41499

>  <SCORE.INTRA.VDW.0>  (57) 
-0.759359

>  <SCORE.INTRA.norm>  (57) 
-0.00111054

>  <SCORE.RESTR>  (57) 
0

>  <SCORE.RESTR.CAVITY>  (57) 
0

>  <SCORE.RESTR.norm>  (57) 
0

>  <SCORE.SYSTEM>  (57) 
0

>  <SCORE.SYSTEM.CONST>  (57) 
0

>  <SCORE.SYSTEM.DIHEDRAL>  (57) 
0

>  <SCORE.SYSTEM.norm>  (57) 
0

>  <SCORE.heavy>  (57) 
18

>  <SCORE.norm>  (57) 
-0.542002

>  <XChemDeepScore>  (57) 
0.978047

>  <SuCOS_Max_Score>  (57) 
0.21515022061476233

>  <SuCOS_Max_FeatureMap_Score>  (57) 
0.0025052479170899942

>  <SuCOS_Max_Protrude_Score>  (57) 
0.42779519331243465

>  <SuCOS_Max_Index>  (57) 
5

>  <SuCOS_Cum_Score>  (57) 
1.1198580200988486

>  <SuCOS_Cum_FeatureMap_Score>  (57) 
0.098068019128469075

>  <SuCOS_Cum_Protrude_Score>  (57) 
2.1416480210692281

$$$$
C[C@H](OCc1ccccc1)[C@@H](N)C(=O)Cc1ccncc1
     RDKit          3D

 21 22  0  0  0  0  0  0  0  0999 V2000
   11.2293   -0.9628   22.5183 C   0  0  0  0  0  0  0  0  0  0  0  0
   10.9166    0.0819   23.6005 C   0  0  2  0  0  0  0  0  0  0  0  0
   11.8743    1.1639   23.5377 O   0  0  0  0  0  0  0  0  0  0  0  0
   11.5814    2.0851   22.4736 C   0  0  0  0  0  0  0  0  0  0  0  0
   12.3431    3.3829   22.5804 C   0  0  0  0  0  0  0  0  0  0  0  0
   12.7271    3.9150   23.8177 C   0  0  0  0  0  0  0  0  0  0  0  0
   13.5294    5.0567   23.8804 C   0  0  0  0  0  0  0  0  0  0  0  0
   13.9669    5.6715   22.7079 C   0  0  0  0  0  0  0  0  0  0  0  0
   13.6082    5.1430   21.4702 C   0  0  0  0  0  0  0  0  0  0  0  0
   12.8057    4.0026   21.4066 C   0  0  0  0  0  0  0  0  0  0  0  0
   10.9492   -0.5728   25.0181 C   0  0  1  0  0  0  0  0  0  0  0  0
   11.5191    0.3295   26.0524 N   0  0  0  0  0  0  0  0  0  0  0  0
    9.5266   -0.9472   25.4645 C   0  0  0  0  0  0  0  0  0  0  0  0
    8.9040   -0.2874   26.3045 O   0  0  0  0  0  0  0  0  0  0  0  0
    8.8807   -2.1721   24.8261 C   0  0  0  0  0  0  0  0  0  0  0  0
    9.3668   -3.4671   25.4548 C   0  0  0  0  0  0  0  0  0  0  0  0
   10.2025   -4.3354   24.7426 C   0  0  0  0  0  0  0  0  0  0  0  0
   10.5815   -5.5483   25.3047 C   0  0  0  0  0  0  0  0  0  0  0  0
   10.1692   -5.8656   26.5410 N   0  0  0  0  0  0  0  0  0  0  0  0
    9.3880   -5.0522   27.2663 C   0  0  0  0  0  0  0  0  0  0  0  0
    8.9653   -3.8370   26.7412 C   0  0  0  0  0  0  0  0  0  0  0  0
  2 11  1  0
  2  3  1  0
  2  1  1  6
  3  4  1  0
  4  5  1  0
  5  6  2  0
  5 10  1  0
  6  7  1  0
  7  8  2  0
  8  9  1  0
  9 10  2  0
 11 12  1  1
 11 13  1  0
 13 14  2  0
 13 15  1  0
 15 16  1  0
 16 17  2  0
 16 21  1  0
 17 18  1  0
 18 19  2  0
 19 20  1  0
 20 21  2  0
M  END
>  <CHROM.1>  (58) 
142.97781377,78.49680542,166.08223682,-30.00890833,-104.43150980,79.91286785
-109.55932973,11.08227690,-0.11578560,24.37258798,-2.45659525,1.10645039
0.45028554

>  <Name>  (58) 
C[C@H](OCc1ccccc1)[C@@H](N)C(=O)Cc1ccncc1

>  <RI>  (58) 
0

>  <Rbt.Current_Directory>  (58) 
/home/gse84885/github/im/docking-validation/targets/mpro/expts/jackall/work/Mpro-x0072_0/work/4c/91d2aa3d757547917c19cdcea5370f

>  <Rbt.Executable>  (58) 
rbdock ($Id: //depot/dev/client3/rdock/2013.1/src/exe/rbdock.cxx#4 $)

>  <Rbt.Library>  (58) 
libRbt.so (2013.1, Build901 2013/11/27)

>  <Rbt.Parameter_File>  (58) 
/rDock_2013.1/data/scripts/dock.prm

>  <Rbt.Receptor>  (58) 
docking-global.prm

>  <SCORE>  (58) 
-11.2856

>  <SCORE.INTER>  (58) 
-11.5713

>  <SCORE.INTER.CONST>  (58) 
1

>  <SCORE.INTER.POLAR>  (58) 
0

>  <SCORE.INTER.REPUL>  (58) 
0

>  <SCORE.INTER.ROT>  (58) 
7

>  <SCORE.INTER.VDW>  (58) 
-23.9713

>  <SCORE.INTER.norm>  (58) 
-0.551015

>  <SCORE.INTRA>  (58) 
0.285726

>  <SCORE.INTRA.DIHEDRAL>  (58) 
5.11358

>  <SCORE.INTRA.DIHEDRAL.0>  (58) 
4.19288

>  <SCORE.INTRA.POLAR>  (58) 
0

>  <SCORE.INTRA.POLAR.0>  (58) 
0

>  <SCORE.INTRA.REPUL>  (58) 
0

>  <SCORE.INTRA.REPUL.0>  (58) 
0

>  <SCORE.INTRA.VDW>  (58) 
-2.27106

>  <SCORE.INTRA.VDW.0>  (58) 
0.932951

>  <SCORE.INTRA.norm>  (58) 
0.013606

>  <SCORE.RESTR>  (58) 
0

>  <SCORE.RESTR.CAVITY>  (58) 
0

>  <SCORE.RESTR.norm>  (58) 
0

>  <SCORE.SYSTEM>  (58) 
0

>  <SCORE.SYSTEM.CONST>  (58) 
0

>  <SCORE.SYSTEM.DIHEDRAL>  (58) 
0

>  <SCORE.SYSTEM.norm>  (58) 
0

>  <SCORE.heavy>  (58) 
21

>  <SCORE.norm>  (58) 
-0.537409

>  <XChemDeepScore>  (58) 
0.977819

>  <SuCOS_Max_Score>  (58) 
0.32097197545954026

>  <SuCOS_Max_FeatureMap_Score>  (58) 
0.10951687643593136

>  <SuCOS_Max_Protrude_Score>  (58) 
0.53242707448314919

>  <SuCOS_Max_Index>  (58) 
4

>  <SuCOS_Cum_Score>  (58) 
1.6586554244496556

>  <SuCOS_Cum_FeatureMap_Score>  (58) 
0.20885370074834625

>  <SuCOS_Cum_Protrude_Score>  (58) 
3.1084571481509653

$$$$
CC(CN)(Cc1cccnc1)c1ccccc1
     RDKit          3D

 17 18  0  0  0  0  0  0  0  0999 V2000
   10.0124    2.0889   21.5854 C   0  0  0  0  0  0  0  0  0  0  0  0
   10.5148    2.4713   23.0027 C   0  0  1  0  0  0  0  0  0  0  0  0
    9.3175    3.1668   23.7647 C   0  0  0  0  0  0  0  0  0  0  0  0
    8.8567    4.4363   23.1969 N   0  0  0  0  0  0  0  0  0  0  0  0
   10.8739    1.1702   23.8035 C   0  0  0  0  0  0  0  0  0  0  0  0
   11.8396    0.1714   23.1981 C   0  0  0  0  0  0  0  0  0  0  0  0
   13.2107    0.4548   23.1244 C   0  0  0  0  0  0  0  0  0  0  0  0
   14.0826   -0.4477   22.5116 C   0  0  0  0  0  0  0  0  0  0  0  0
   13.5735   -1.6223   21.9906 C   0  0  0  0  0  0  0  0  0  0  0  0
   12.2592   -1.8705   22.0596 N   0  0  0  0  0  0  0  0  0  0  0  0
   11.3898   -1.0142   22.6248 C   0  0  0  0  0  0  0  0  0  0  0  0
   11.7143    3.4593   22.9227 C   0  0  0  0  0  0  0  0  0  0  0  0
   12.4406    3.6393   21.7277 C   0  0  0  0  0  0  0  0  0  0  0  0
   13.5779    4.4532   21.6725 C   0  0  0  0  0  0  0  0  0  0  0  0
   14.0001    5.1435   22.8005 C   0  0  0  0  0  0  0  0  0  0  0  0
   13.2813    5.0235   23.9832 C   0  0  0  0  0  0  0  0  0  0  0  0
   12.1578    4.1895   24.0451 C   0  0  0  0  0  0  0  0  0  0  0  0
  2  1  1  6
  2  3  1  0
  2  5  1  0
  2 12  1  0
  3  4  1  0
  5  6  1  0
  6  7  2  0
  6 11  1  0
  7  8  1  0
  8  9  2  0
  9 10  1  0
 10 11  2  0
 12 13  2  0
 12 17  1  0
 13 14  1  0
 14 15  2  0
 15 16  1  0
 16 17  2  0
M  END
>  <CHROM.1>  (59) 
-64.21513149,53.83609265,-16.52484456,72.92746616,11.90891127,2.04853695
22.81719732,1.73983168,0.12245837,0.09896950

>  <Name>  (59) 
CC(CN)(Cc1cccnc1)c1ccccc1

>  <RI>  (59) 
0

>  <Rbt.Current_Directory>  (59) 
/home/gse84885/github/im/docking-validation/targets/mpro/expts/jackall/work/Mpro-x0072_0/work/93/848a7cb03c280e1437794b5475ce27

>  <Rbt.Executable>  (59) 
rbdock ($Id: //depot/dev/client3/rdock/2013.1/src/exe/rbdock.cxx#4 $)

>  <Rbt.Library>  (59) 
libRbt.so (2013.1, Build901 2013/11/27)

>  <Rbt.Parameter_File>  (59) 
/rDock_2013.1/data/scripts/dock.prm

>  <Rbt.Receptor>  (59) 
docking-global.prm

>  <SCORE>  (59) 
-9.78131

>  <SCORE.INTER>  (59) 
-9.62791

>  <SCORE.INTER.CONST>  (59) 
1

>  <SCORE.INTER.POLAR>  (59) 
0

>  <SCORE.INTER.REPUL>  (59) 
0

>  <SCORE.INTER.ROT>  (59) 
4

>  <SCORE.INTER.VDW>  (59) 
-19.0279

>  <SCORE.INTER.norm>  (59) 
-0.566348

>  <SCORE.INTRA>  (59) 
-0.153403

>  <SCORE.INTRA.DIHEDRAL>  (59) 
0.385655

>  <SCORE.INTRA.DIHEDRAL.0>  (59) 
1.43234

>  <SCORE.INTRA.POLAR>  (59) 
0

>  <SCORE.INTRA.POLAR.0>  (59) 
0

>  <SCORE.INTRA.REPUL>  (59) 
0

>  <SCORE.INTRA.REPUL.0>  (59) 
0

>  <SCORE.INTRA.VDW>  (59) 
-0.34623

>  <SCORE.INTRA.VDW.0>  (59) 
0.205271

>  <SCORE.INTRA.norm>  (59) 
-0.00902369

>  <SCORE.RESTR>  (59) 
0

>  <SCORE.RESTR.CAVITY>  (59) 
0

>  <SCORE.RESTR.norm>  (59) 
0

>  <SCORE.SYSTEM>  (59) 
0

>  <SCORE.SYSTEM.CONST>  (59) 
0

>  <SCORE.SYSTEM.DIHEDRAL>  (59) 
0

>  <SCORE.SYSTEM.norm>  (59) 
0

>  <SCORE.heavy>  (59) 
17

>  <SCORE.norm>  (59) 
-0.575371

>  <XChemDeepScore>  (59) 
0.977608

>  <SuCOS_Max_Score>  (59) 
0.45647179950185857

>  <SuCOS_Max_FeatureMap_Score>  (59) 
0.21528535648111105

>  <SuCOS_Max_Protrude_Score>  (59) 
0.69765824252260611

>  <SuCOS_Max_Index>  (59) 
2

>  <SuCOS_Cum_Score>  (59) 
2.1526129821422058

>  <SuCOS_Cum_FeatureMap_Score>  (59) 
0.72201817407381796

>  <SuCOS_Cum_Protrude_Score>  (59) 
3.5832077902105932

$$$$
CC(C)C(C(=O)O)c1ccc(S(N)(=O)=O)cc1
     RDKit          3D

 17 17  0  0  0  0  0  0  0  0999 V2000
   11.0250    0.1534   24.7176 C   0  0  0  0  0  0  0  0  0  0  0  0
    9.9242   -0.0231   23.6620 C   0  0  0  0  0  0  0  0  0  0  0  0
    8.5643    0.0289   24.3756 C   0  0  0  0  0  0  0  0  0  0  0  0
   10.0366    1.0509   22.5438 C   0  0  1  0  0  0  0  0  0  0  0  0
   11.4235    1.1370   21.8501 C   0  0  0  0  0  0  0  0  0  0  0  0
   11.9029    0.0479   21.4199 O   0  0  0  0  0  0  0  0  0  0  0  0
   11.9262    2.2997   21.8069 O   0  0  0  0  0  0  0  0  0  0  0  0
    8.9764    0.8763   21.4540 C   0  0  0  0  0  0  0  0  0  0  0  0
    9.1393   -0.1210   20.4802 C   0  0  0  0  0  0  0  0  0  0  0  0
    8.2204   -0.2577   19.4393 C   0  0  0  0  0  0  0  0  0  0  0  0
    7.1204    0.6004   19.3794 C   0  0  0  0  0  0  0  0  0  0  0  0
    5.9591    0.4403   18.0516 S   0  0  0  0  0  0  0  0  0  0  0  0
    6.2431   -1.1449   17.5676 N   0  0  0  0  0  0  0  0  0  0  0  0
    4.6220    0.4801   18.5924 O   0  0  0  0  0  0  0  0  0  0  0  0
    6.3810    1.2911   16.9608 O   0  0  0  0  0  0  0  0  0  0  0  0
    6.9354    1.5949   20.3427 C   0  0  0  0  0  0  0  0  0  0  0  0
    7.8574    1.7229   21.3828 C   0  0  0  0  0  0  0  0  0  0  0  0
  1  2  1  0
  2  3  1  0
  4  2  1  1
  4  5  1  0
  4  8  1  0
  5  6  2  0
  5  7  1  0
  8  9  2  0
  8 17  1  0
  9 10  1  0
 10 11  2  0
 11 12  1  0
 11 16  1  0
 12 13  1  0
 12 14  2  0
 12 15  2  0
 16 17  2  0
M  END
>  <CHROM.1>  (60) 
54.18667066,51.06704636,-77.54277292,21.66786797,8.41320401,0.58895197,20.60996204
0.79028506,0.16656450,1.67959766

>  <Name>  (60) 
CC(C)C(C(=O)O)c1ccc(S(N)(=O)=O)cc1

>  <RI>  (60) 
0

>  <Rbt.Current_Directory>  (60) 
/home/gse84885/github/im/docking-validation/targets/mpro/expts/jackall/work/Mpro-x0072_0/work/f7/47f5a1f7b42dff54c64405d469aef3

>  <Rbt.Executable>  (60) 
rbdock ($Id: //depot/dev/client3/rdock/2013.1/src/exe/rbdock.cxx#4 $)

>  <Rbt.Library>  (60) 
libRbt.so (2013.1, Build901 2013/11/27)

>  <Rbt.Parameter_File>  (60) 
/rDock_2013.1/data/scripts/dock.prm

>  <Rbt.Receptor>  (60) 
docking-global.prm

>  <SCORE>  (60) 
-7.21364

>  <SCORE.INTER>  (60) 
-7.36288

>  <SCORE.INTER.CONST>  (60) 
1

>  <SCORE.INTER.POLAR>  (60) 
0

>  <SCORE.INTER.REPUL>  (60) 
0.0303799

>  <SCORE.INTER.ROT>  (60) 
4

>  <SCORE.INTER.VDW>  (60) 
-16.9148

>  <SCORE.INTER.norm>  (60) 
-0.433111

>  <SCORE.INTRA>  (60) 
0.14924

>  <SCORE.INTRA.DIHEDRAL>  (60) 
0.0461741

>  <SCORE.INTRA.DIHEDRAL.0>  (60) 
4.1625

>  <SCORE.INTRA.POLAR>  (60) 
0

>  <SCORE.INTRA.POLAR.0>  (60) 
0

>  <SCORE.INTRA.REPUL>  (60) 
0

>  <SCORE.INTRA.REPUL.0>  (60) 
0

>  <SCORE.INTRA.VDW>  (60) 
0.126153

>  <SCORE.INTRA.VDW.0>  (60) 
-1.42213

>  <SCORE.INTRA.norm>  (60) 
0.00877881

>  <SCORE.RESTR>  (60) 
0

>  <SCORE.RESTR.CAVITY>  (60) 
0

>  <SCORE.RESTR.norm>  (60) 
0

>  <SCORE.SYSTEM>  (60) 
0

>  <SCORE.SYSTEM.CONST>  (60) 
0

>  <SCORE.SYSTEM.DIHEDRAL>  (60) 
0

>  <SCORE.SYSTEM.norm>  (60) 
0

>  <SCORE.heavy>  (60) 
17

>  <SCORE.norm>  (60) 
-0.424332

>  <XChemDeepScore>  (60) 
0.977558

>  <SuCOS_Max_Score>  (60) 
0.37956413310753934

>  <SuCOS_Max_FeatureMap_Score>  (60) 
0.14188410827793121

>  <SuCOS_Max_Protrude_Score>  (60) 
0.61724415793714749

>  <SuCOS_Max_Index>  (60) 
6

>  <SuCOS_Cum_Score>  (60) 
1.3874417967431225

>  <SuCOS_Cum_FeatureMap_Score>  (60) 
0.218487601553359

>  <SuCOS_Cum_Protrude_Score>  (60) 
2.5563959919328862

$$$$
NS(=O)(=O)OCc1ccc(S(N)(=O)=O)cc1
     RDKit          3D

 16 16  0  0  0  0  0  0  0  0999 V2000
    4.9653    1.0325   18.4756 N   0  0  0  0  0  0  0  0  0  0  0  0
    6.4072    0.5774   17.7641 S   0  0  0  0  0  0  0  0  0  0  0  0
    6.4130   -0.8629   17.7119 O   0  0  0  0  0  0  0  0  0  0  0  0
    6.5135    1.3830   16.5698 O   0  0  0  0  0  0  0  0  0  0  0  0
    7.5273    1.0764   18.8179 O   0  0  0  0  0  0  0  0  0  0  0  0
    7.4094    0.5700   20.1334 C   0  0  0  0  0  0  0  0  0  0  0  0
    8.7011    0.8048   20.8748 C   0  0  0  0  0  0  0  0  0  0  0  0
    9.7165   -0.1647   20.8519 C   0  0  0  0  0  0  0  0  0  0  0  0
   10.9168    0.0503   21.5301 C   0  0  0  0  0  0  0  0  0  0  0  0
   11.1089    1.2463   22.2254 C   0  0  0  0  0  0  0  0  0  0  0  0
   12.6257    1.5117   23.0916 S   0  0  0  0  0  0  0  0  0  0  0  0
   12.1920    1.0867   24.6568 N   0  0  0  0  0  0  0  0  0  0  0  0
   13.5974    0.5320   22.6678 O   0  0  0  0  0  0  0  0  0  0  0  0
   12.9150    2.9263   23.1285 O   0  0  0  0  0  0  0  0  0  0  0  0
   10.1083    2.2188   22.2649 C   0  0  0  0  0  0  0  0  0  0  0  0
    8.9091    1.9979   21.5845 C   0  0  0  0  0  0  0  0  0  0  0  0
  1  2  1  0
  2  3  2  0
  2  4  2  0
  2  5  1  0
  5  6  1  0
  6  7  1  0
  7  8  2  0
  7 16  1  0
  8  9  1  0
  9 10  2  0
 10 11  1  0
 10 15  1  0
 11 12  1  0
 11 13  2  0
 11 14  2  0
 15 16  2  0
M  END
>  <CHROM.1>  (61) 
57.15390448,164.43428716,-90.38178456,-97.73451076,9.38025653,1.00502268
20.66299205,2.66661232,0.55521783,-2.53316321

>  <Name>  (61) 
NS(=O)(=O)OCc1ccc(S(N)(=O)=O)cc1

>  <RI>  (61) 
0

>  <Rbt.Current_Directory>  (61) 
/home/gse84885/github/im/docking-validation/targets/mpro/expts/jackall/work/Mpro-x0072_0/work/22/429166a2ea0fca48dad9ab34db1a8d

>  <Rbt.Executable>  (61) 
rbdock ($Id: //depot/dev/client3/rdock/2013.1/src/exe/rbdock.cxx#4 $)

>  <Rbt.Library>  (61) 
libRbt.so (2013.1, Build901 2013/11/27)

>  <Rbt.Parameter_File>  (61) 
/rDock_2013.1/data/scripts/dock.prm

>  <Rbt.Receptor>  (61) 
docking-global.prm

>  <SCORE>  (61) 
-8.53109

>  <SCORE.INTER>  (61) 
-9.13456

>  <SCORE.INTER.CONST>  (61) 
1

>  <SCORE.INTER.POLAR>  (61) 
0

>  <SCORE.INTER.REPUL>  (61) 
0.0971557

>  <SCORE.INTER.ROT>  (61) 
4

>  <SCORE.INTER.VDW>  (61) 
-19.0203

>  <SCORE.INTER.norm>  (61) 
-0.57091

>  <SCORE.INTRA>  (61) 
0.603469

>  <SCORE.INTRA.DIHEDRAL>  (61) 
1.07535

>  <SCORE.INTRA.DIHEDRAL.0>  (61) 
1.99276

>  <SCORE.INTRA.POLAR>  (61) 
0

>  <SCORE.INTRA.POLAR.0>  (61) 
0

>  <SCORE.INTRA.REPUL>  (61) 
0

>  <SCORE.INTRA.REPUL.0>  (61) 
0

>  <SCORE.INTRA.VDW>  (61) 
0.0657923

>  <SCORE.INTRA.VDW.0>  (61) 
-1.13844

>  <SCORE.INTRA.norm>  (61) 
0.0377168

>  <SCORE.RESTR>  (61) 
0

>  <SCORE.RESTR.CAVITY>  (61) 
0

>  <SCORE.RESTR.norm>  (61) 
0

>  <SCORE.SYSTEM>  (61) 
0

>  <SCORE.SYSTEM.CONST>  (61) 
0

>  <SCORE.SYSTEM.DIHEDRAL>  (61) 
0

>  <SCORE.SYSTEM.norm>  (61) 
0

>  <SCORE.heavy>  (61) 
16

>  <SCORE.norm>  (61) 
-0.533193

>  <XChemDeepScore>  (61) 
0.976990

>  <SuCOS_Max_Score>  (61) 
0.33977781596006751

>  <SuCOS_Max_FeatureMap_Score>  (61) 
0.053360205724708946

>  <SuCOS_Max_Protrude_Score>  (61) 
0.62619542619542612

>  <SuCOS_Max_Index>  (61) 
5

>  <SuCOS_Cum_Score>  (61) 
1.4069051718712879

>  <SuCOS_Cum_FeatureMap_Score>  (61) 
0.14594189747405462

>  <SuCOS_Cum_Protrude_Score>  (61) 
2.6678684462685216

$$$$
NC(=NCc1ccccc1)NCCc1cccnc1
     RDKit          3D

 19 20  0  0  0  0  0  0  0  0999 V2000
   11.0302   -2.0565   21.7913 N   0  0  0  0  0  0  0  0  0  0  0  0
   10.7553   -0.7338   21.9121 C   0  0  0  0  0  0  0  0  0  0  0  0
    9.6063   -0.1637   21.9874 N   0  0  0  0  0  0  0  0  0  0  0  0
    8.3906   -0.9590   21.9389 C   0  0  0  0  0  0  0  0  0  0  0  0
    7.6649   -0.7553   20.6277 C   0  0  0  0  0  0  0  0  0  0  0  0
    6.3673   -1.2524   20.4539 C   0  0  0  0  0  0  0  0  0  0  0  0
    5.6958   -1.0660   19.2459 C   0  0  0  0  0  0  0  0  0  0  0  0
    6.3240   -0.4102   18.1910 C   0  0  0  0  0  0  0  0  0  0  0  0
    7.6221    0.0774   18.3468 C   0  0  0  0  0  0  0  0  0  0  0  0
    8.2902   -0.0991   19.5625 C   0  0  0  0  0  0  0  0  0  0  0  0
   11.9129   -0.0171   21.9526 N   0  0  0  0  0  0  0  0  0  0  0  0
   11.8560    1.4430   22.1033 C   0  0  0  0  0  0  0  0  0  0  0  0
   12.7816    1.9232   23.2225 C   0  0  0  0  0  0  0  0  0  0  0  0
   12.9333    3.4198   23.2215 C   0  0  0  0  0  0  0  0  0  0  0  0
   13.5646    4.0932   22.1725 C   0  0  0  0  0  0  0  0  0  0  0  0
   13.6530    5.4832   22.2015 C   0  0  0  0  0  0  0  0  0  0  0  0
   13.1057    6.1563   23.2782 C   0  0  0  0  0  0  0  0  0  0  0  0
   12.4856    5.5416   24.3078 N   0  0  0  0  0  0  0  0  0  0  0  0
   12.4091    4.1937   24.2540 C   0  0  0  0  0  0  0  0  0  0  0  0
  1  2  1  0
  2  3  2  0
  2 11  1  0
  3  4  1  0
  4  5  1  0
  5  6  2  0
  5 10  1  0
  6  7  1  0
  7  8  2  0
  8  9  1  0
  9 10  2  0
 11 12  1  0
 12 13  1  0
 13 14  1  0
 14 15  2  0
 14 19  1  0
 15 16  1  0
 16 17  2  0
 17 18  1  0
 18 19  2  0
M  END
>  <CHROM.1>  (62) 
-108.68612361,-169.61309449,130.08527019,169.30568276,-66.03911933,10.36057819
1.30059215,21.63958112,-2.52560410,-0.61326461,-0.11555271

>  <Name>  (62) 
NC(=NCc1ccccc1)NCCc1cccnc1

>  <RI>  (62) 
0

>  <Rbt.Current_Directory>  (62) 
/home/gse84885/github/im/docking-validation/targets/mpro/expts/jackall/work/Mpro-x0072_0/work/db/291b7413ca51b6bc91d4d4a1172dd5

>  <Rbt.Executable>  (62) 
rbdock ($Id: //depot/dev/client3/rdock/2013.1/src/exe/rbdock.cxx#4 $)

>  <Rbt.Library>  (62) 
libRbt.so (2013.1, Build901 2013/11/27)

>  <Rbt.Parameter_File>  (62) 
/rDock_2013.1/data/scripts/dock.prm

>  <Rbt.Receptor>  (62) 
docking-global.prm

>  <SCORE>  (62) 
-13.6993

>  <SCORE.INTER>  (62) 
-12.129

>  <SCORE.INTER.CONST>  (62) 
1

>  <SCORE.INTER.POLAR>  (62) 
0

>  <SCORE.INTER.REPUL>  (62) 
0.0145243

>  <SCORE.INTER.ROT>  (62) 
5

>  <SCORE.INTER.VDW>  (62) 
-22.6016

>  <SCORE.INTER.norm>  (62) 
-0.638366

>  <SCORE.INTRA>  (62) 
-1.57031

>  <SCORE.INTRA.DIHEDRAL>  (62) 
-3.75867

>  <SCORE.INTRA.DIHEDRAL.0>  (62) 
6.01868

>  <SCORE.INTRA.POLAR>  (62) 
0

>  <SCORE.INTRA.POLAR.0>  (62) 
0

>  <SCORE.INTRA.REPUL>  (62) 
0

>  <SCORE.INTRA.REPUL.0>  (62) 
0

>  <SCORE.INTRA.VDW>  (62) 
0.309027

>  <SCORE.INTRA.VDW.0>  (62) 
-1.06299

>  <SCORE.INTRA.norm>  (62) 
-0.0826477

>  <SCORE.RESTR>  (62) 
0

>  <SCORE.RESTR.CAVITY>  (62) 
0

>  <SCORE.RESTR.norm>  (62) 
0

>  <SCORE.SYSTEM>  (62) 
0

>  <SCORE.SYSTEM.CONST>  (62) 
0

>  <SCORE.SYSTEM.DIHEDRAL>  (62) 
0

>  <SCORE.SYSTEM.norm>  (62) 
0

>  <SCORE.heavy>  (62) 
19

>  <SCORE.norm>  (62) 
-0.721014

>  <XChemDeepScore>  (62) 
0.976653

>  <SuCOS_Max_Score>  (62) 
0.32889263110679751

>  <SuCOS_Max_FeatureMap_Score>  (62) 
0.20040652124352279

>  <SuCOS_Max_Protrude_Score>  (62) 
0.45737874097007225

>  <SuCOS_Max_Index>  (62) 
1

>  <SuCOS_Cum_Score>  (62) 
1.6326173426390831

>  <SuCOS_Cum_FeatureMap_Score>  (62) 
0.3627948905063797

>  <SuCOS_Cum_Protrude_Score>  (62) 
2.9024397947717868

$$$$
NS(=O)(=O)c1ccc(CCC(=O)C(=O)O)cc1
     RDKit          3D

 17 17  0  0  0  0  0  0  0  0999 V2000
   13.0591    0.4339   24.9110 N   0  0  0  0  0  0  0  0  0  0  0  0
   13.3082    0.8096   23.3867 S   0  0  0  0  0  0  0  0  0  0  0  0
   13.4594    2.2429   23.1554 O   0  0  0  0  0  0  0  0  0  0  0  0
   14.3072   -0.0266   22.7251 O   0  0  0  0  0  0  0  0  0  0  0  0
   11.7895    0.3860   22.4950 C   0  0  0  0  0  0  0  0  0  0  0  0
   11.4071   -0.9451   22.3410 C   0  0  0  0  0  0  0  0  0  0  0  0
   10.2217   -1.2469   21.6631 C   0  0  0  0  0  0  0  0  0  0  0  0
    9.4060   -0.2258   21.1473 C   0  0  0  0  0  0  0  0  0  0  0  0
    8.1302   -0.5621   20.4036 C   0  0  0  0  0  0  0  0  0  0  0  0
    8.2113   -0.2913   18.8992 C   0  0  0  0  0  0  0  0  0  0  0  0
    6.8397   -0.1303   18.2792 C   0  0  0  0  0  0  0  0  0  0  0  0
    5.9156   -0.9324   18.4272 O   0  0  0  0  0  0  0  0  0  0  0  0
    6.5782    1.1168   17.4173 C   0  0  0  0  0  0  0  0  0  0  0  0
    7.6164    1.7508   17.0417 O   0  0  0  0  0  0  0  0  0  0  0  0
    5.3719    1.4222   17.1491 O   0  0  0  0  0  0  0  0  0  0  0  0
    9.8125    1.1093   21.3089 C   0  0  0  0  0  0  0  0  0  0  0  0
   10.9987    1.4166   21.9847 C   0  0  0  0  0  0  0  0  0  0  0  0
  1  2  1  0
  2  3  2  0
  2  4  2  0
  2  5  1  0
  5  6  2  0
  5 17  1  0
  6  7  1  0
  7  8  2  0
  8  9  1  0
  8 16  1  0
  9 10  1  0
 10 11  1  0
 11 12  2  0
 11 13  1  0
 13 14  2  0
 13 15  1  0
 16 17  2  0
M  END
>  <CHROM.1>  (63) 
-68.11698432,-108.91457089,-158.55805771,-51.10202865,15.69132185,10.04479447
0.43065273,20.90713028,0.31324512,0.62884080,2.60728740

>  <Name>  (63) 
NS(=O)(=O)c1ccc(CCC(=O)C(=O)O)cc1

>  <RI>  (63) 
0

>  <Rbt.Current_Directory>  (63) 
/home/gse84885/github/im/docking-validation/targets/mpro/expts/jackall/work/Mpro-x0072_0/work/23/a91a7fd88774b75552dd4813a8a923

>  <Rbt.Executable>  (63) 
rbdock ($Id: //depot/dev/client3/rdock/2013.1/src/exe/rbdock.cxx#4 $)

>  <Rbt.Library>  (63) 
libRbt.so (2013.1, Build901 2013/11/27)

>  <Rbt.Parameter_File>  (63) 
/rDock_2013.1/data/scripts/dock.prm

>  <Rbt.Receptor>  (63) 
docking-global.prm

>  <SCORE>  (63) 
-9.64428

>  <SCORE.INTER>  (63) 
-9.654

>  <SCORE.INTER.CONST>  (63) 
1

>  <SCORE.INTER.POLAR>  (63) 
0

>  <SCORE.INTER.REPUL>  (63) 
0.0554645

>  <SCORE.INTER.ROT>  (63) 
5

>  <SCORE.INTER.VDW>  (63) 
-20.3313

>  <SCORE.INTER.norm>  (63) 
-0.567882

>  <SCORE.INTRA>  (63) 
0.00972225

>  <SCORE.INTRA.DIHEDRAL>  (63) 
1.37583

>  <SCORE.INTRA.DIHEDRAL.0>  (63) 
4.37814

>  <SCORE.INTRA.POLAR>  (63) 
0

>  <SCORE.INTRA.POLAR.0>  (63) 
0

>  <SCORE.INTRA.REPUL>  (63) 
0

>  <SCORE.INTRA.REPUL.0>  (63) 
0

>  <SCORE.INTRA.VDW>  (63) 
-0.678192

>  <SCORE.INTRA.VDW.0>  (63) 
-0.0496103

>  <SCORE.INTRA.norm>  (63) 
0.000571897

>  <SCORE.RESTR>  (63) 
0

>  <SCORE.RESTR.CAVITY>  (63) 
0

>  <SCORE.RESTR.norm>  (63) 
0

>  <SCORE.SYSTEM>  (63) 
0

>  <SCORE.SYSTEM.CONST>  (63) 
0

>  <SCORE.SYSTEM.DIHEDRAL>  (63) 
0

>  <SCORE.SYSTEM.norm>  (63) 
0

>  <SCORE.heavy>  (63) 
17

>  <SCORE.norm>  (63) 
-0.56731

>  <XChemDeepScore>  (63) 
0.976400

>  <SuCOS_Max_Score>  (63) 
0.36471125924975867

>  <SuCOS_Max_FeatureMap_Score>  (63) 
0.03240230595523725

>  <SuCOS_Max_Protrude_Score>  (63) 
0.69702021254428004

>  <SuCOS_Max_Index>  (63) 
5

>  <SuCOS_Cum_Score>  (63) 
1.6281240358099078

>  <SuCOS_Cum_FeatureMap_Score>  (63) 
0.21960053169039326

>  <SuCOS_Cum_Protrude_Score>  (63) 
3.0366475399294224

$$$$
CS(=O)(=O)CCCCC(CN)c1ccccc1
     RDKit          3D

 17 17  0  0  0  0  0  0  0  0999 V2000
    5.1538    0.9954   18.5847 C   0  0  0  0  0  0  0  0  0  0  0  0
    6.8394    0.4693   18.6906 S   0  0  0  0  0  0  0  0  0  0  0  0
    6.8663   -0.9774   18.7894 O   0  0  0  0  0  0  0  0  0  0  0  0
    7.5633    1.1456   17.6186 O   0  0  0  0  0  0  0  0  0  0  0  0
    7.3934    1.1451   20.2515 C   0  0  0  0  0  0  0  0  0  0  0  0
    8.8195    0.7282   20.6306 C   0  0  0  0  0  0  0  0  0  0  0  0
    9.4584    1.5030   21.7924 C   0  0  0  0  0  0  0  0  0  0  0  0
   10.8570    0.9864   22.1381 C   0  0  0  0  0  0  0  0  0  0  0  0
   11.5236    1.6591   23.3580 C   0  0  1  0  0  0  0  0  0  0  0  0
   12.7071    0.8902   23.9888 C   0  0  0  0  0  0  0  0  0  0  0  0
   13.8540    0.6938   23.0741 N   0  0  0  0  0  0  0  0  0  0  0  0
   11.8852    3.0979   22.9974 C   0  0  0  0  0  0  0  0  0  0  0  0
   12.6339    3.3467   21.8371 C   0  0  0  0  0  0  0  0  0  0  0  0
   13.0293    4.6443   21.5120 C   0  0  0  0  0  0  0  0  0  0  0  0
   12.6750    5.7140   22.3292 C   0  0  0  0  0  0  0  0  0  0  0  0
   11.9343    5.4862   23.4830 C   0  0  0  0  0  0  0  0  0  0  0  0
   11.5537    4.1876   23.8220 C   0  0  0  0  0  0  0  0  0  0  0  0
  1  2  1  0
  2  3  2  0
  2  4  2  0
  2  5  1  0
  5  6  1  0
  6  7  1  0
  7  8  1  0
  9  8  1  6
  9 10  1  0
  9 12  1  0
 10 11  1  0
 12 13  2  0
 12 17  1  0
 13 14  1  0
 14 15  2  0
 15 16  1  0
 16 17  2  0
M  END
>  <CHROM.1>  (64) 
175.46721260,167.46557305,177.76881101,-176.19630809,161.89747848,61.75562708
-52.23398618,9.90678996,1.89167488,21.16252376,2.83516750,0.67313321,3.00234334

>  <Name>  (64) 
CS(=O)(=O)CCCCC(CN)c1ccccc1

>  <RI>  (64) 
0

>  <Rbt.Current_Directory>  (64) 
/home/gse84885/github/im/docking-validation/targets/mpro/expts/jackall/work/Mpro-x0072_0/work/56/a115c290a9da1710d480bd27b0e891

>  <Rbt.Executable>  (64) 
rbdock ($Id: //depot/dev/client3/rdock/2013.1/src/exe/rbdock.cxx#4 $)

>  <Rbt.Library>  (64) 
libRbt.so (2013.1, Build901 2013/11/27)

>  <Rbt.Parameter_File>  (64) 
/rDock_2013.1/data/scripts/dock.prm

>  <Rbt.Receptor>  (64) 
docking-global.prm

>  <SCORE>  (64) 
-7.62667

>  <SCORE.INTER>  (64) 
-8.38246

>  <SCORE.INTER.CONST>  (64) 
1

>  <SCORE.INTER.POLAR>  (64) 
0

>  <SCORE.INTER.REPUL>  (64) 
0

>  <SCORE.INTER.ROT>  (64) 
7

>  <SCORE.INTER.VDW>  (64) 
-20.7825

>  <SCORE.INTER.norm>  (64) 
-0.493086

>  <SCORE.INTRA>  (64) 
0.755794

>  <SCORE.INTRA.DIHEDRAL>  (64) 
1.58345

>  <SCORE.INTRA.DIHEDRAL.0>  (64) 
1.41332

>  <SCORE.INTRA.POLAR>  (64) 
0

>  <SCORE.INTRA.POLAR.0>  (64) 
0

>  <SCORE.INTRA.REPUL>  (64) 
0

>  <SCORE.INTRA.REPUL.0>  (64) 
0

>  <SCORE.INTRA.VDW>  (64) 
-0.0359317

>  <SCORE.INTRA.VDW.0>  (64) 
-1.26857

>  <SCORE.INTRA.norm>  (64) 
0.0444585

>  <SCORE.RESTR>  (64) 
0

>  <SCORE.RESTR.CAVITY>  (64) 
0

>  <SCORE.RESTR.norm>  (64) 
0

>  <SCORE.SYSTEM>  (64) 
0

>  <SCORE.SYSTEM.CONST>  (64) 
0

>  <SCORE.SYSTEM.DIHEDRAL>  (64) 
0

>  <SCORE.SYSTEM.norm>  (64) 
0

>  <SCORE.heavy>  (64) 
17

>  <SCORE.norm>  (64) 
-0.448627

>  <XChemDeepScore>  (64) 
0.975923

>  <SuCOS_Max_Score>  (64) 
0.30667096710755593

>  <SuCOS_Max_FeatureMap_Score>  (64) 
0.045430396556025661

>  <SuCOS_Max_Protrude_Score>  (64) 
0.5679115376590862

>  <SuCOS_Max_Index>  (64) 
5

>  <SuCOS_Cum_Score>  (64) 
1.6736836187942015

>  <SuCOS_Cum_FeatureMap_Score>  (64) 
0.44408135004456545

>  <SuCOS_Cum_Protrude_Score>  (64) 
2.903285887543837

$$$$
NS(=O)(=O)c1ccc(C=CCC(=O)O)cc1
     RDKit          3D

 16 16  0  0  0  0  0  0  0  0999 V2000
   13.9688   -0.0152   22.9070 N   0  0  0  0  0  0  0  0  0  0  0  0
   12.8575    0.9302   23.5378 S   0  0  0  0  0  0  0  0  0  0  0  0
   12.3247    0.4378   24.8043 O   0  0  0  0  0  0  0  0  0  0  0  0
   13.2068    2.3481   23.5341 O   0  0  0  0  0  0  0  0  0  0  0  0
   11.4319    0.8699   22.4227 C   0  0  0  0  0  0  0  0  0  0  0  0
   11.0754   -0.3236   21.7968 C   0  0  0  0  0  0  0  0  0  0  0  0
    9.9359   -0.3616   20.9840 C   0  0  0  0  0  0  0  0  0  0  0  0
    9.1394    0.7819   20.8035 C   0  0  0  0  0  0  0  0  0  0  0  0
    7.9243    0.6820   19.9735 C   0  0  0  0  0  0  0  0  0  0  0  0
    7.5458   -0.4241   19.3082 C   0  0  0  0  0  0  0  0  0  0  0  0
    6.3471   -0.4948   18.3978 C   0  0  0  0  0  0  0  0  0  0  0  0
    5.7166    0.8580   18.0264 C   0  0  0  0  0  0  0  0  0  0  0  0
    6.3839    1.6184   17.2695 O   0  0  0  0  0  0  0  0  0  0  0  0
    4.5967    1.0822   18.5799 O   0  0  0  0  0  0  0  0  0  0  0  0
    9.5390    1.9809   21.4138 C   0  0  0  0  0  0  0  0  0  0  0  0
   10.6750    2.0257   22.2306 C   0  0  0  0  0  0  0  0  0  0  0  0
  1  2  1  0
  2  3  2  0
  2  4  2  0
  2  5  1  0
  5  6  2  0
  5 16  1  0
  6  7  1  0
  7  8  2  0
  8  9  1  0
  8 15  1  0
  9 10  2  0
 10 11  1  0
 11 12  1  0
 12 13  2  0
 12 14  1  0
 15 16  2  0
M  END
>  <CHROM.1>  (65) 
37.72662192,-3.50110562,12.15161316,69.30575674,9.80082213,0.78573757,21.20892950
-0.14427461,0.63920997,-2.94807403

>  <Name>  (65) 
NS(=O)(=O)c1ccc(C=CCC(=O)O)cc1

>  <RI>  (65) 
0

>  <Rbt.Current_Directory>  (65) 
/home/gse84885/github/im/docking-validation/targets/mpro/expts/jackall/work/Mpro-x0072_0/work/18/c98b1291f3c4d76fe68cc999d544dc

>  <Rbt.Executable>  (65) 
rbdock ($Id: //depot/dev/client3/rdock/2013.1/src/exe/rbdock.cxx#4 $)

>  <Rbt.Library>  (65) 
libRbt.so (2013.1, Build901 2013/11/27)

>  <Rbt.Parameter_File>  (65) 
/rDock_2013.1/data/scripts/dock.prm

>  <Rbt.Receptor>  (65) 
docking-global.prm

>  <SCORE>  (65) 
-12.5369

>  <SCORE.INTER>  (65) 
-10.5738

>  <SCORE.INTER.CONST>  (65) 
1

>  <SCORE.INTER.POLAR>  (65) 
0

>  <SCORE.INTER.REPUL>  (65) 
0.00809795

>  <SCORE.INTER.ROT>  (65) 
4

>  <SCORE.INTER.VDW>  (65) 
-20.0143

>  <SCORE.INTER.norm>  (65) 
-0.660865

>  <SCORE.INTRA>  (65) 
-1.96304

>  <SCORE.INTRA.DIHEDRAL>  (65) 
-4.40478

>  <SCORE.INTRA.DIHEDRAL.0>  (65) 
7.19487

>  <SCORE.INTRA.POLAR>  (65) 
0

>  <SCORE.INTRA.POLAR.0>  (65) 
0

>  <SCORE.INTRA.REPUL>  (65) 
0

>  <SCORE.INTRA.REPUL.0>  (65) 
0

>  <SCORE.INTRA.VDW>  (65) 
0.239349

>  <SCORE.INTRA.VDW.0>  (65) 
-0.682957

>  <SCORE.INTRA.norm>  (65) 
-0.12269

>  <SCORE.RESTR>  (65) 
0

>  <SCORE.RESTR.CAVITY>  (65) 
0

>  <SCORE.RESTR.norm>  (65) 
0

>  <SCORE.SYSTEM>  (65) 
0

>  <SCORE.SYSTEM.CONST>  (65) 
0

>  <SCORE.SYSTEM.DIHEDRAL>  (65) 
0

>  <SCORE.SYSTEM.norm>  (65) 
0

>  <SCORE.heavy>  (65) 
16

>  <SCORE.norm>  (65) 
-0.783555

>  <XChemDeepScore>  (65) 
0.975881

>  <SuCOS_Max_Score>  (65) 
0.3645222932191069

>  <SuCOS_Max_FeatureMap_Score>  (65) 
0.042536649930277275

>  <SuCOS_Max_Protrude_Score>  (65) 
0.68650793650793651

>  <SuCOS_Max_Index>  (65) 
5

>  <SuCOS_Cum_Score>  (65) 
1.6171208164048587

>  <SuCOS_Cum_FeatureMap_Score>  (65) 
0.30667130237814105

>  <SuCOS_Cum_Protrude_Score>  (65) 
2.9275703304315766

$$$$
COC(=O)c1ccc(C=CC(=O)C(=O)O)cc1
     RDKit          3D

 17 17  0  0  0  0  0  0  0  0999 V2000
    8.9777   -4.2838   26.5823 C   0  0  0  0  0  0  0  0  0  0  0  0
    9.5204   -3.0988   26.0057 O   0  0  0  0  0  0  0  0  0  0  0  0
   10.0110   -3.2656   24.7520 C   0  0  0  0  0  0  0  0  0  0  0  0
   10.0064   -4.3112   24.1179 O   0  0  0  0  0  0  0  0  0  0  0  0
   10.5695   -1.9886   24.2350 C   0  0  0  0  0  0  0  0  0  0  0  0
   11.0450   -1.9495   22.9194 C   0  0  0  0  0  0  0  0  0  0  0  0
   11.5878   -0.7678   22.4003 C   0  0  0  0  0  0  0  0  0  0  0  0
   11.6533    0.3959   23.1795 C   0  0  0  0  0  0  0  0  0  0  0  0
   12.2247    1.6160   22.5874 C   0  0  0  0  0  0  0  0  0  0  0  0
   12.4185    2.7587   23.2630 C   0  0  0  0  0  0  0  0  0  0  0  0
   12.9456    3.9823   22.5904 C   0  0  0  0  0  0  0  0  0  0  0  0
   13.1398    4.0446   21.3752 O   0  0  0  0  0  0  0  0  0  0  0  0
   13.2466    5.2285   23.4558 C   0  0  0  0  0  0  0  0  0  0  0  0
   13.1101    5.0651   24.7147 O   0  0  0  0  0  0  0  0  0  0  0  0
   13.6004    6.2999   22.8696 O   0  0  0  0  0  0  0  0  0  0  0  0
   11.1928    0.3411   24.5027 C   0  0  0  0  0  0  0  0  0  0  0  0
   10.6473   -0.8365   25.0255 C   0  0  0  0  0  0  0  0  0  0  0  0
  1  2  1  0
  2  3  1  0
  3  4  2  0
  3  5  1  0
  5  6  2  0
  5 17  1  0
  6  7  1  0
  7  8  2  0
  8  9  1  0
  8 16  1  0
  9 10  2  0
 10 11  1  0
 11 12  2  0
 11 13  1  0
 13 14  2  0
 13 15  1  0
 16 17  2  0
M  END
>  <CHROM.1>  (66) 
0.57841661,-175.99783205,-175.42938764,5.32518572,5.19435283,11.52032838
0.56171469,23.82719866,2.72707348,-1.15851669,-2.26816431

>  <Name>  (66) 
COC(=O)c1ccc(C=CC(=O)C(=O)O)cc1

>  <RI>  (66) 
0

>  <Rbt.Current_Directory>  (66) 
/home/gse84885/github/im/docking-validation/targets/mpro/expts/jackall/work/Mpro-x0072_0/work/ff/44e4e7621d938bfd4ab9b6b3725469

>  <Rbt.Executable>  (66) 
rbdock ($Id: //depot/dev/client3/rdock/2013.1/src/exe/rbdock.cxx#4 $)

>  <Rbt.Library>  (66) 
libRbt.so (2013.1, Build901 2013/11/27)

>  <Rbt.Parameter_File>  (66) 
/rDock_2013.1/data/scripts/dock.prm

>  <Rbt.Receptor>  (66) 
docking-global.prm

>  <SCORE>  (66) 
-7.29284

>  <SCORE.INTER>  (66) 
-5.97559

>  <SCORE.INTER.CONST>  (66) 
1

>  <SCORE.INTER.POLAR>  (66) 
0

>  <SCORE.INTER.REPUL>  (66) 
0.0180395

>  <SCORE.INTER.ROT>  (66) 
5

>  <SCORE.INTER.VDW>  (66) 
-16.4658

>  <SCORE.INTER.norm>  (66) 
-0.351505

>  <SCORE.INTRA>  (66) 
-1.31725

>  <SCORE.INTRA.DIHEDRAL>  (66) 
-2.88938

>  <SCORE.INTRA.DIHEDRAL.0>  (66) 
3.20078

>  <SCORE.INTRA.POLAR>  (66) 
0

>  <SCORE.INTRA.POLAR.0>  (66) 
0

>  <SCORE.INTRA.REPUL>  (66) 
0

>  <SCORE.INTRA.REPUL.0>  (66) 
0

>  <SCORE.INTRA.VDW>  (66) 
0.127446

>  <SCORE.INTRA.VDW.0>  (66) 
1.85497

>  <SCORE.INTRA.norm>  (66) 
-0.077485

>  <SCORE.RESTR>  (66) 
0

>  <SCORE.RESTR.CAVITY>  (66) 
0

>  <SCORE.RESTR.norm>  (66) 
0

>  <SCORE.SYSTEM>  (66) 
0

>  <SCORE.SYSTEM.CONST>  (66) 
0

>  <SCORE.SYSTEM.DIHEDRAL>  (66) 
0

>  <SCORE.SYSTEM.norm>  (66) 
0

>  <SCORE.heavy>  (66) 
17

>  <SCORE.norm>  (66) 
-0.42899

>  <XChemDeepScore>  (66) 
0.975401

>  <SuCOS_Max_Score>  (66) 
0.40794162025234398

>  <SuCOS_Max_FeatureMap_Score>  (66) 
0.2882377652510123

>  <SuCOS_Max_Protrude_Score>  (66) 
0.52764547525367567

>  <SuCOS_Max_Index>  (66) 
1

>  <SuCOS_Cum_Score>  (66) 
2.049253700001588

>  <SuCOS_Cum_FeatureMap_Score>  (66) 
0.9610692157820997

>  <SuCOS_Cum_Protrude_Score>  (66) 
3.1374381842210761

$$$$
COC(=O)c1ccc(COS(N)(=O)=O)cc1
     RDKit          3D

 16 16  0  0  0  0  0  0  0  0999 V2000
   12.8851    4.2808   23.9054 C   0  0  0  0  0  0  0  0  0  0  0  0
   11.6877    3.6996   23.3881 O   0  0  0  0  0  0  0  0  0  0  0  0
   11.8633    2.4535   22.8798 C   0  0  0  0  0  0  0  0  0  0  0  0
   12.8895    1.7938   22.9691 O   0  0  0  0  0  0  0  0  0  0  0  0
   10.6359    1.9760   22.1865 C   0  0  0  0  0  0  0  0  0  0  0  0
   10.6920    0.7373   21.5353 C   0  0  0  0  0  0  0  0  0  0  0  0
    9.5725    0.2407   20.8650 C   0  0  0  0  0  0  0  0  0  0  0  0
    8.3785    0.9723   20.8307 C   0  0  0  0  0  0  0  0  0  0  0  0
    7.1857    0.4361   20.0680 C   0  0  0  0  0  0  0  0  0  0  0  0
    6.9942    1.1833   18.8811 O   0  0  0  0  0  0  0  0  0  0  0  0
    5.8354    0.6467   17.8612 S   0  0  0  0  0  0  0  0  0  0  0  0
    4.5433    0.8944   18.7329 N   0  0  0  0  0  0  0  0  0  0  0  0
    5.9497    1.5159   16.6955 O   0  0  0  0  0  0  0  0  0  0  0  0
    6.1687   -0.7530   17.6333 O   0  0  0  0  0  0  0  0  0  0  0  0
    8.3246    2.2132   21.4817 C   0  0  0  0  0  0  0  0  0  0  0  0
    9.4442    2.7131   22.1586 C   0  0  0  0  0  0  0  0  0  0  0  0
  1  2  1  0
  2  3  1  0
  3  4  2  0
  3  5  1  0
  5  6  2  0
  5 16  1  0
  6  7  1  0
  7  8  2  0
  8  9  1  0
  8 15  1  0
  9 10  1  0
 10 11  1  0
 11 12  1  0
 11 13  2  0
 11 14  2  0
 15 16  2  0
M  END
>  <CHROM.1>  (67) 
7.95271188,176.02210830,-107.20462440,174.20625097,66.43869784,8.67588298
1.49861660,20.47648213,0.50762367,-0.57032851,0.38981450

>  <Name>  (67) 
COC(=O)c1ccc(COS(N)(=O)=O)cc1

>  <RI>  (67) 
0

>  <Rbt.Current_Directory>  (67) 
/home/gse84885/github/im/docking-validation/targets/mpro/expts/jackall/work/Mpro-x0072_0/work/2e/565cb4fb039ed00f8b05d4957d3ddd

>  <Rbt.Executable>  (67) 
rbdock ($Id: //depot/dev/client3/rdock/2013.1/src/exe/rbdock.cxx#4 $)

>  <Rbt.Library>  (67) 
libRbt.so (2013.1, Build901 2013/11/27)

>  <Rbt.Parameter_File>  (67) 
/rDock_2013.1/data/scripts/dock.prm

>  <Rbt.Receptor>  (67) 
docking-global.prm

>  <SCORE>  (67) 
-6.29825

>  <SCORE.INTER>  (67) 
-6.56619

>  <SCORE.INTER.CONST>  (67) 
1

>  <SCORE.INTER.POLAR>  (67) 
0

>  <SCORE.INTER.REPUL>  (67) 
0.060422

>  <SCORE.INTER.ROT>  (67) 
5

>  <SCORE.INTER.VDW>  (67) 
-17.2683

>  <SCORE.INTER.norm>  (67) 
-0.410387

>  <SCORE.INTRA>  (67) 
0.267938

>  <SCORE.INTRA.DIHEDRAL>  (67) 
0.641373

>  <SCORE.INTRA.DIHEDRAL.0>  (67) 
0.796412

>  <SCORE.INTRA.POLAR>  (67) 
0

>  <SCORE.INTRA.POLAR.0>  (67) 
0

>  <SCORE.INTRA.REPUL>  (67) 
0

>  <SCORE.INTRA.REPUL.0>  (67) 
0

>  <SCORE.INTRA.VDW>  (67) 
-0.0527484

>  <SCORE.INTRA.VDW.0>  (67) 
1.67694

>  <SCORE.INTRA.norm>  (67) 
0.0167461

>  <SCORE.RESTR>  (67) 
0

>  <SCORE.RESTR.CAVITY>  (67) 
0

>  <SCORE.RESTR.norm>  (67) 
0

>  <SCORE.SYSTEM>  (67) 
0

>  <SCORE.SYSTEM.CONST>  (67) 
0

>  <SCORE.SYSTEM.DIHEDRAL>  (67) 
0

>  <SCORE.SYSTEM.norm>  (67) 
0

>  <SCORE.heavy>  (67) 
16

>  <SCORE.norm>  (67) 
-0.393641

>  <XChemDeepScore>  (67) 
0.975325

>  <SuCOS_Max_Score>  (67) 
0.27314264171177732

>  <SuCOS_Max_FeatureMap_Score>  (67) 
0.053474281131410416

>  <SuCOS_Max_Protrude_Score>  (67) 
0.49281100229214425

>  <SuCOS_Max_Index>  (67) 
5

>  <SuCOS_Cum_Score>  (67) 
1.0531689198340615

>  <SuCOS_Cum_FeatureMap_Score>  (67) 
0.10455828378339427

>  <SuCOS_Cum_Protrude_Score>  (67) 
2.0017795558847289

$$$$
O=NN(CC(=O)O)Cc1ccccc1
     RDKit          3D

 14 14  0  0  0  0  0  0  0  0999 V2000
   14.3346    0.4882   22.9193 O   0  0  0  0  0  0  0  0  0  0  0  0
   13.3995    0.6245   23.7181 N   0  0  0  0  0  0  0  0  0  0  0  0
   12.2498    0.6979   23.0828 N   0  0  0  0  0  0  0  0  0  0  0  0
   11.4199   -0.5237   23.2420 C   0  0  0  0  0  0  0  0  0  0  0  0
   11.7618   -1.6244   22.2092 C   0  0  0  0  0  0  0  0  0  0  0  0
   10.7786   -2.2320   21.6976 O   0  0  0  0  0  0  0  0  0  0  0  0
   13.0031   -1.8286   22.0354 O   0  0  0  0  0  0  0  0  0  0  0  0
   11.4893    1.9383   23.3242 C   0  0  0  0  0  0  0  0  0  0  0  0
   12.2580    3.2115   23.0047 C   0  0  0  0  0  0  0  0  0  0  0  0
   12.8474    3.9628   24.0319 C   0  0  0  0  0  0  0  0  0  0  0  0
   13.6709    5.0506   23.7312 C   0  0  0  0  0  0  0  0  0  0  0  0
   13.9039    5.4100   22.4022 C   0  0  0  0  0  0  0  0  0  0  0  0
   13.2980    4.6906   21.3745 C   0  0  0  0  0  0  0  0  0  0  0  0
   12.4794    3.5984   21.6727 C   0  0  0  0  0  0  0  0  0  0  0  0
  1  2  2  0
  2  3  1  0
  3  4  1  0
  3  8  1  0
  4  5  1  0
  5  6  2  0
  5  7  1  0
  8  9  1  0
  9 10  2  0
  9 14  1  0
 10 11  1  0
 11 12  2  0
 12 13  1  0
 13 14  2  0
M  END
>  <CHROM.1>  (68) 
107.73732154,-85.75245353,55.90448032,-138.04997952,-100.72660538,12.63469208
1.53202175,22.73538617,-1.80525389,-0.34339845,-0.00931041

>  <Name>  (68) 
O=NN(CC(=O)O)Cc1ccccc1

>  <RI>  (68) 
0

>  <Rbt.Current_Directory>  (68) 
/home/gse84885/github/im/docking-validation/targets/mpro/expts/jackall/work/Mpro-x0072_0/work/5d/f6f76001792a0a2ea9f0c62dfd1bda

>  <Rbt.Executable>  (68) 
rbdock ($Id: //depot/dev/client3/rdock/2013.1/src/exe/rbdock.cxx#4 $)

>  <Rbt.Library>  (68) 
libRbt.so (2013.1, Build901 2013/11/27)

>  <Rbt.Parameter_File>  (68) 
/rDock_2013.1/data/scripts/dock.prm

>  <Rbt.Receptor>  (68) 
docking-global.prm

>  <SCORE>  (68) 
-6.8276

>  <SCORE.INTER>  (68) 
-6.24648

>  <SCORE.INTER.CONST>  (68) 
1

>  <SCORE.INTER.POLAR>  (68) 
0

>  <SCORE.INTER.REPUL>  (68) 
0.00130551

>  <SCORE.INTER.ROT>  (68) 
5

>  <SCORE.INTER.VDW>  (68) 
-16.653

>  <SCORE.INTER.norm>  (68) 
-0.446177

>  <SCORE.INTRA>  (68) 
-0.581119

>  <SCORE.INTRA.DIHEDRAL>  (68) 
0.77009

>  <SCORE.INTRA.DIHEDRAL.0>  (68) 
3.43263

>  <SCORE.INTRA.POLAR>  (68) 
0

>  <SCORE.INTRA.POLAR.0>  (68) 
0

>  <SCORE.INTRA.REPUL>  (68) 
0

>  <SCORE.INTRA.REPUL.0>  (68) 
0

>  <SCORE.INTRA.VDW>  (68) 
-0.966163

>  <SCORE.INTRA.VDW.0>  (68) 
-0.947062

>  <SCORE.INTRA.norm>  (68) 
-0.0415085

>  <SCORE.RESTR>  (68) 
0

>  <SCORE.RESTR.CAVITY>  (68) 
0

>  <SCORE.RESTR.norm>  (68) 
0

>  <SCORE.SYSTEM>  (68) 
0

>  <SCORE.SYSTEM.CONST>  (68) 
0

>  <SCORE.SYSTEM.DIHEDRAL>  (68) 
0

>  <SCORE.SYSTEM.norm>  (68) 
0

>  <SCORE.heavy>  (68) 
14

>  <SCORE.norm>  (68) 
-0.487685

>  <XChemDeepScore>  (68) 
0.974995

>  <SuCOS_Max_Score>  (68) 
0.35138867604476826

>  <SuCOS_Max_FeatureMap_Score>  (68) 
0.14483477824115809

>  <SuCOS_Max_Protrude_Score>  (68) 
0.55794257384837842

>  <SuCOS_Max_Index>  (68) 
1

>  <SuCOS_Cum_Score>  (68) 
1.6532421742051793

>  <SuCOS_Cum_FeatureMap_Score>  (68) 
0.26046549232172522

>  <SuCOS_Cum_Protrude_Score>  (68) 
3.0460188560886339

$$$$
CN(c1ccc(S(N)(=O)=O)cc1)C(C)(C)CN
     RDKit          3D

 17 17  0  0  0  0  0  0  0  0999 V2000
    9.6423   -0.3896   23.9374 C   0  0  0  0  0  0  0  0  0  0  0  0
    9.9635    0.4728   22.7713 N   0  0  0  0  0  0  0  0  0  0  0  0
    9.0744    0.4263   21.6755 C   0  0  0  0  0  0  0  0  0  0  0  0
    8.0783    1.4097   21.4674 C   0  0  0  0  0  0  0  0  0  0  0  0
    7.1724    1.3844   20.3912 C   0  0  0  0  0  0  0  0  0  0  0  0
    7.2737    0.3889   19.4321 C   0  0  0  0  0  0  0  0  0  0  0  0
    6.1488    0.3464   18.0727 S   0  0  0  0  0  0  0  0  0  0  0  0
    6.4183   -1.1938   17.4665 N   0  0  0  0  0  0  0  0  0  0  0  0
    4.7995    0.3452   18.5837 O   0  0  0  0  0  0  0  0  0  0  0  0
    6.6038    1.2709   17.0588 O   0  0  0  0  0  0  0  0  0  0  0  0
    8.2441   -0.5892   19.5692 C   0  0  0  0  0  0  0  0  0  0  0  0
    9.1200   -0.5606   20.6709 C   0  0  0  0  0  0  0  0  0  0  0  0
   11.4167    0.9393   22.6786 C   0  0  0  0  0  0  0  0  0  0  0  0
   11.5541    2.1856   21.7457 C   0  0  0  0  0  0  0  0  0  0  0  0
   11.9885    1.3949   24.0339 C   0  0  0  0  0  0  0  0  0  0  0  0
   12.2974   -0.1697   22.0208 C   0  0  0  0  0  0  0  0  0  0  0  0
   12.0596   -1.4782   22.7021 N   0  0  0  0  0  0  0  0  0  0  0  0
  1  2  1  0
  2  3  1  0
  2 13  1  0
  3  4  2  0
  3 12  1  0
  4  5  1  0
  5  6  2  0
  6  7  1  0
  6 11  1  0
  7  8  1  0
  7  9  2  0
  7 10  2  0
 11 12  2  0
 13 14  1  0
 13 15  1  0
 13 16  1  0
 16 17  1  0
M  END
>  <CHROM.1>  (69) 
99.48125880,-160.80152119,-166.03404029,-50.33921894,8.71415055,0.37199186
20.61941337,-0.36673443,0.66609134,-2.61275536

>  <Name>  (69) 
CN(c1ccc(S(N)(=O)=O)cc1)C(C)(C)CN

>  <RI>  (69) 
0

>  <Rbt.Current_Directory>  (69) 
/home/gse84885/github/im/docking-validation/targets/mpro/expts/jackall/work/Mpro-x0072_0/work/93/34cb2dc0fe306b389a620c2cb7d18a

>  <Rbt.Executable>  (69) 
rbdock ($Id: //depot/dev/client3/rdock/2013.1/src/exe/rbdock.cxx#4 $)

>  <Rbt.Library>  (69) 
libRbt.so (2013.1, Build901 2013/11/27)

>  <Rbt.Parameter_File>  (69) 
/rDock_2013.1/data/scripts/dock.prm

>  <Rbt.Receptor>  (69) 
docking-global.prm

>  <SCORE>  (69) 
-13.0441

>  <SCORE.INTER>  (69) 
-7.42679

>  <SCORE.INTER.CONST>  (69) 
1

>  <SCORE.INTER.POLAR>  (69) 
0

>  <SCORE.INTER.REPUL>  (69) 
0.0368537

>  <SCORE.INTER.ROT>  (69) 
4

>  <SCORE.INTER.VDW>  (69) 
-17.0111

>  <SCORE.INTER.norm>  (69) 
-0.43687

>  <SCORE.INTRA>  (69) 
-5.61733

>  <SCORE.INTRA.DIHEDRAL>  (69) 
-0.2716

>  <SCORE.INTRA.DIHEDRAL.0>  (69) 
3.0356

>  <SCORE.INTRA.POLAR>  (69) 
0

>  <SCORE.INTRA.POLAR.0>  (69) 
0

>  <SCORE.INTRA.REPUL>  (69) 
0

>  <SCORE.INTRA.REPUL.0>  (69) 
0

>  <SCORE.INTRA.VDW>  (69) 
-5.48153

>  <SCORE.INTRA.VDW.0>  (69) 
7.37589

>  <SCORE.INTRA.norm>  (69) 
-0.330431

>  <SCORE.RESTR>  (69) 
0

>  <SCORE.RESTR.CAVITY>  (69) 
0

>  <SCORE.RESTR.norm>  (69) 
0

>  <SCORE.SYSTEM>  (69) 
0

>  <SCORE.SYSTEM.CONST>  (69) 
0

>  <SCORE.SYSTEM.DIHEDRAL>  (69) 
0

>  <SCORE.SYSTEM.norm>  (69) 
0

>  <SCORE.heavy>  (69) 
17

>  <SCORE.norm>  (69) 
-0.767301

>  <XChemDeepScore>  (69) 
0.974632

>  <SuCOS_Max_Score>  (69) 
0.39782132510574331

>  <SuCOS_Max_FeatureMap_Score>  (69) 
0.068085891202946766

>  <SuCOS_Max_Protrude_Score>  (69) 
0.72755675900853989

>  <SuCOS_Max_Index>  (69) 
5

>  <SuCOS_Cum_Score>  (69) 
1.6924484512396629

>  <SuCOS_Cum_FeatureMap_Score>  (69) 
0.091849303591525142

>  <SuCOS_Cum_Protrude_Score>  (69) 
3.2930475988878003

$$$$
CCCCCc1ccc(S(N)(=O)=O)cc1
     RDKit          3D

 15 15  0  0  0  0  0  0  0  0999 V2000
   13.5398    4.6358   23.6565 C   0  0  0  0  0  0  0  0  0  0  0  0
   12.7939    3.9916   22.5043 C   0  0  0  0  0  0  0  0  0  0  0  0
   11.9357    2.8190   22.9786 C   0  0  0  0  0  0  0  0  0  0  0  0
   11.0677    2.3208   21.8259 C   0  0  0  0  0  0  0  0  0  0  0  0
   10.0329    1.2708   22.2488 C   0  0  0  0  0  0  0  0  0  0  0  0
    8.9694    1.0076   21.2057 C   0  0  0  0  0  0  0  0  0  0  0  0
    9.1578   -0.0038   20.2557 C   0  0  0  0  0  0  0  0  0  0  0  0
    8.2017   -0.2409   19.2650 C   0  0  0  0  0  0  0  0  0  0  0  0
    7.0455    0.5303   19.2338 C   0  0  0  0  0  0  0  0  0  0  0  0
    5.7891    0.2059   17.9672 S   0  0  0  0  0  0  0  0  0  0  0  0
    4.3866    0.4253   18.6789 N   0  0  0  0  0  0  0  0  0  0  0  0
    6.0941    1.1997   16.9483 O   0  0  0  0  0  0  0  0  0  0  0  0
    6.0725   -1.1775   17.5892 O   0  0  0  0  0  0  0  0  0  0  0  0
    6.8269    1.5369   20.1723 C   0  0  0  0  0  0  0  0  0  0  0  0
    7.7896    1.7707   21.1641 C   0  0  0  0  0  0  0  0  0  0  0  0
  1  2  1  0
  2  3  1  0
  3  4  1  0
  4  5  1  0
  5  6  1  0
  6  7  2  0
  6 15  1  0
  7  8  1  0
  8  9  2  0
  9 10  1  0
  9 14  1  0
 10 11  1  0
 10 12  2  0
 10 13  2  0
 14 15  2  0
M  END
>  <CHROM.1>  (70) 
172.62727593,-172.15765620,166.61559490,91.11977702,142.73669322,8.41864214
1.27325661,20.15268291,0.44745038,-0.60070838,0.11341517

>  <Name>  (70) 
CCCCCc1ccc(S(N)(=O)=O)cc1

>  <RI>  (70) 
0

>  <Rbt.Current_Directory>  (70) 
/home/gse84885/github/im/docking-validation/targets/mpro/expts/jackall/work/Mpro-x0072_0/work/91/bdf07f7d89913b559ecce9136a5c65

>  <Rbt.Executable>  (70) 
rbdock ($Id: //depot/dev/client3/rdock/2013.1/src/exe/rbdock.cxx#4 $)

>  <Rbt.Library>  (70) 
libRbt.so (2013.1, Build901 2013/11/27)

>  <Rbt.Parameter_File>  (70) 
/rDock_2013.1/data/scripts/dock.prm

>  <Rbt.Receptor>  (70) 
docking-global.prm

>  <SCORE>  (70) 
-8.10021

>  <SCORE.INTER>  (70) 
-8.51651

>  <SCORE.INTER.CONST>  (70) 
1

>  <SCORE.INTER.POLAR>  (70) 
0

>  <SCORE.INTER.REPUL>  (70) 
0.0422106

>  <SCORE.INTER.ROT>  (70) 
5

>  <SCORE.INTER.VDW>  (70) 
-19.1276

>  <SCORE.INTER.norm>  (70) 
-0.567767

>  <SCORE.INTRA>  (70) 
0.4163

>  <SCORE.INTRA.DIHEDRAL>  (70) 
1.1773

>  <SCORE.INTRA.DIHEDRAL.0>  (70) 
1.90822

>  <SCORE.INTRA.POLAR>  (70) 
0

>  <SCORE.INTRA.POLAR.0>  (70) 
0

>  <SCORE.INTRA.REPUL>  (70) 
0

>  <SCORE.INTRA.REPUL.0>  (70) 
0

>  <SCORE.INTRA.VDW>  (70) 
-0.172352

>  <SCORE.INTRA.VDW.0>  (70) 
-0.976648

>  <SCORE.INTRA.norm>  (70) 
0.0277534

>  <SCORE.RESTR>  (70) 
0

>  <SCORE.RESTR.CAVITY>  (70) 
0

>  <SCORE.RESTR.norm>  (70) 
0

>  <SCORE.SYSTEM>  (70) 
0

>  <SCORE.SYSTEM.CONST>  (70) 
0

>  <SCORE.SYSTEM.DIHEDRAL>  (70) 
0

>  <SCORE.SYSTEM.norm>  (70) 
0

>  <SCORE.heavy>  (70) 
15

>  <SCORE.norm>  (70) 
-0.540014

>  <XChemDeepScore>  (70) 
0.974627

>  <SuCOS_Max_Score>  (70) 
0.2618657272637307

>  <SuCOS_Max_FeatureMap_Score>  (70) 
0.053718959733625456

>  <SuCOS_Max_Protrude_Score>  (70) 
0.47001249479383589

>  <SuCOS_Max_Index>  (70) 
5

>  <SuCOS_Cum_Score>  (70) 
1.0078366654309014

>  <SuCOS_Cum_FeatureMap_Score>  (70) 
0.31961062394345929

>  <SuCOS_Cum_Protrude_Score>  (70) 
1.6960627069183436

$$$$
CN=C(N)NCCCCOCc1ccccc1
     RDKit          3D

 17 17  0  0  0  0  0  0  0  0999 V2000
   12.6031    6.0357   24.3039 C   0  0  0  0  0  0  0  0  0  0  0  0
   12.4634    4.6740   23.8214 N   0  0  0  0  0  0  0  0  0  0  0  0
   12.6535    4.4279   22.5789 C   0  0  0  0  0  0  0  0  0  0  0  0
   13.0128    5.2996   21.6031 N   0  0  0  0  0  0  0  0  0  0  0  0
   12.5276    3.1893   22.0320 N   0  0  0  0  0  0  0  0  0  0  0  0
   11.9461    2.0773   22.7616 C   0  0  0  0  0  0  0  0  0  0  0  0
   11.3010    1.0977   21.7862 C   0  0  0  0  0  0  0  0  0  0  0  0
   10.6226   -0.0743   22.5012 C   0  0  0  0  0  0  0  0  0  0  0  0
   10.2954   -1.2508   21.5785 C   0  0  0  0  0  0  0  0  0  0  0  0
    9.4144   -0.8905   20.5171 O   0  0  0  0  0  0  0  0  0  0  0  0
    8.1012   -0.5624   20.9676 C   0  0  0  0  0  0  0  0  0  0  0  0
    7.2220   -0.2814   19.7790 C   0  0  0  0  0  0  0  0  0  0  0  0
    7.4711    0.8251   18.9552 C   0  0  0  0  0  0  0  0  0  0  0  0
    6.6733    1.0695   17.8369 C   0  0  0  0  0  0  0  0  0  0  0  0
    5.6171    0.2127   17.5341 C   0  0  0  0  0  0  0  0  0  0  0  0
    5.3548   -0.8858   18.3507 C   0  0  0  0  0  0  0  0  0  0  0  0
    6.1528   -1.1318   19.4691 C   0  0  0  0  0  0  0  0  0  0  0  0
  1  2  1  0
  2  3  2  0
  3  4  1  0
  3  5  1  0
  5  6  1  0
  6  7  1  0
  7  8  1  0
  8  9  1  0
  9 10  1  0
 10 11  1  0
 11 12  1  0
 12 13  2  0
 12 17  1  0
 13 14  1  0
 14 15  2  0
 15 16  1  0
 16 17  2  0
M  END
>  <CHROM.1>  (71) 
151.60848938,-177.86144828,-164.63945167,-59.98500655,-67.70131930,-176.45293027
-65.59584870,9.69140953,1.42011151,21.02487204,0.45738599,-0.69933149,-0.20693175

>  <Name>  (71) 
CN=C(N)NCCCCOCc1ccccc1

>  <RI>  (71) 
0

>  <Rbt.Current_Directory>  (71) 
/home/gse84885/github/im/docking-validation/targets/mpro/expts/jackall/work/Mpro-x0072_0/work/6b/d1385b76a416daa2b1df748b96d175

>  <Rbt.Executable>  (71) 
rbdock ($Id: //depot/dev/client3/rdock/2013.1/src/exe/rbdock.cxx#4 $)

>  <Rbt.Library>  (71) 
libRbt.so (2013.1, Build901 2013/11/27)

>  <Rbt.Parameter_File>  (71) 
/rDock_2013.1/data/scripts/dock.prm

>  <Rbt.Receptor>  (71) 
docking-global.prm

>  <SCORE>  (71) 
-7.60214

>  <SCORE.INTER>  (71) 
-7.60962

>  <SCORE.INTER.CONST>  (71) 
1

>  <SCORE.INTER.POLAR>  (71) 
0

>  <SCORE.INTER.REPUL>  (71) 
0.0351236

>  <SCORE.INTER.ROT>  (71) 
7

>  <SCORE.INTER.VDW>  (71) 
-20.1852

>  <SCORE.INTER.norm>  (71) 
-0.447625

>  <SCORE.INTRA>  (71) 
0.00748363

>  <SCORE.INTRA.DIHEDRAL>  (71) 
0.720395

>  <SCORE.INTRA.DIHEDRAL.0>  (71) 
2.61091

>  <SCORE.INTRA.POLAR>  (71) 
0

>  <SCORE.INTRA.POLAR.0>  (71) 
0

>  <SCORE.INTRA.REPUL>  (71) 
0

>  <SCORE.INTRA.REPUL.0>  (71) 
0

>  <SCORE.INTRA.VDW>  (71) 
-0.352714

>  <SCORE.INTRA.VDW.0>  (71) 
0.0865227

>  <SCORE.INTRA.norm>  (71) 
0.000440214

>  <SCORE.RESTR>  (71) 
0

>  <SCORE.RESTR.CAVITY>  (71) 
0

>  <SCORE.RESTR.norm>  (71) 
0

>  <SCORE.SYSTEM>  (71) 
0

>  <SCORE.SYSTEM.CONST>  (71) 
0

>  <SCORE.SYSTEM.DIHEDRAL>  (71) 
0

>  <SCORE.SYSTEM.norm>  (71) 
0

>  <SCORE.heavy>  (71) 
17

>  <SCORE.norm>  (71) 
-0.447185

>  <XChemDeepScore>  (71) 
0.974017

>  <SuCOS_Max_Score>  (71) 
0.35317246965991211

>  <SuCOS_Max_FeatureMap_Score>  (71) 
0.21559302938817973

>  <SuCOS_Max_Protrude_Score>  (71) 
0.49075190993164453

>  <SuCOS_Max_Index>  (71) 
6

>  <SuCOS_Cum_Score>  (71) 
1.4224891922125011

>  <SuCOS_Cum_FeatureMap_Score>  (71) 
0.37096354064654324

>  <SuCOS_Cum_Protrude_Score>  (71) 
2.4740148437784586

$$$$
COC(=O)[C@H](N)CCc1ccc(S(N)(=O)=O)cc1
     RDKit          3D

 18 18  0  0  0  0  0  0  0  0999 V2000
   12.9804    5.0324   24.1390 C   0  0  0  0  0  0  0  0  0  0  0  0
   12.7972    3.6186   24.2174 O   0  0  0  0  0  0  0  0  0  0  0  0
   12.7404    3.0039   22.9998 C   0  0  0  0  0  0  0  0  0  0  0  0
   12.8838    3.5728   21.9223 O   0  0  0  0  0  0  0  0  0  0  0  0
   12.4600    1.4980   23.1650 C   0  0  2  0  0  0  0  0  0  0  0  0
   13.7278    0.7558   22.9773 N   0  0  0  0  0  0  0  0  0  0  0  0
   11.3810    1.0745   22.1614 C   0  0  0  0  0  0  0  0  0  0  0  0
    9.9634    1.5118   22.5610 C   0  0  0  0  0  0  0  0  0  0  0  0
    8.9513    1.2008   21.4863 C   0  0  0  0  0  0  0  0  0  0  0  0
    9.1851    0.1522   20.5804 C   0  0  0  0  0  0  0  0  0  0  0  0
    8.2824   -0.1098   19.5518 C   0  0  0  0  0  0  0  0  0  0  0  0
    7.1273    0.6631   19.4414 C   0  0  0  0  0  0  0  0  0  0  0  0
    6.0045    0.3269   18.0627 S   0  0  0  0  0  0  0  0  0  0  0  0
    6.4077    1.3464   16.9161 N   0  0  0  0  0  0  0  0  0  0  0  0
    6.2892   -1.0690   17.7355 O   0  0  0  0  0  0  0  0  0  0  0  0
    4.6987    0.5651   18.6688 O   0  0  0  0  0  0  0  0  0  0  0  0
    6.8568    1.6838   20.3514 C   0  0  0  0  0  0  0  0  0  0  0  0
    7.7698    1.9502   21.3750 C   0  0  0  0  0  0  0  0  0  0  0  0
  1  2  1  0
  2  3  1  0
  3  4  2  0
  5  7  1  0
  5  6  1  6
  5  3  1  0
  7  8  1  0
  8  9  1  0
  9 10  2  0
  9 18  1  0
 10 11  1  0
 11 12  2  0
 12 13  1  0
 12 17  1  0
 13 14  1  0
 13 15  2  0
 13 16  2  0
 17 18  2  0
M  END
>  <CHROM.1>  (72) 
2.84777965,-75.71211748,-102.39433226,174.24476280,25.88419641,-95.00513401
9.25112912,1.43387276,20.81310471,0.51716004,-0.49859407,0.39178306

>  <Name>  (72) 
COC(=O)[C@H](N)CCc1ccc(S(N)(=O)=O)cc1

>  <RI>  (72) 
0

>  <Rbt.Current_Directory>  (72) 
/home/gse84885/github/im/docking-validation/targets/mpro/expts/jackall/work/Mpro-x0072_0/work/2e/12ae4d4a41fa34ea224f8e03426fb3

>  <Rbt.Executable>  (72) 
rbdock ($Id: //depot/dev/client3/rdock/2013.1/src/exe/rbdock.cxx#4 $)

>  <Rbt.Library>  (72) 
libRbt.so (2013.1, Build901 2013/11/27)

>  <Rbt.Parameter_File>  (72) 
/rDock_2013.1/data/scripts/dock.prm

>  <Rbt.Receptor>  (72) 
docking-global.prm

>  <SCORE>  (72) 
-7.52893

>  <SCORE.INTER>  (72) 
-9.33611

>  <SCORE.INTER.CONST>  (72) 
1

>  <SCORE.INTER.POLAR>  (72) 
0

>  <SCORE.INTER.REPUL>  (72) 
0.075375

>  <SCORE.INTER.ROT>  (72) 
6

>  <SCORE.INTER.VDW>  (72) 
-21.113

>  <SCORE.INTER.norm>  (72) 
-0.518673

>  <SCORE.INTRA>  (72) 
1.80718

>  <SCORE.INTRA.DIHEDRAL>  (72) 
1.26001

>  <SCORE.INTRA.DIHEDRAL.0>  (72) 
3.83001

>  <SCORE.INTRA.POLAR>  (72) 
0

>  <SCORE.INTRA.POLAR.0>  (72) 
0

>  <SCORE.INTRA.REPUL>  (72) 
0

>  <SCORE.INTRA.REPUL.0>  (72) 
0

>  <SCORE.INTRA.VDW>  (72) 
1.17718

>  <SCORE.INTRA.VDW.0>  (72) 
0.724325

>  <SCORE.INTRA.norm>  (72) 
0.100399

>  <SCORE.RESTR>  (72) 
0

>  <SCORE.RESTR.CAVITY>  (72) 
0

>  <SCORE.RESTR.norm>  (72) 
0

>  <SCORE.SYSTEM>  (72) 
0

>  <SCORE.SYSTEM.CONST>  (72) 
0

>  <SCORE.SYSTEM.DIHEDRAL>  (72) 
0

>  <SCORE.SYSTEM.norm>  (72) 
0

>  <SCORE.heavy>  (72) 
18

>  <SCORE.norm>  (72) 
-0.418274

>  <XChemDeepScore>  (72) 
0.973945

>  <SuCOS_Max_Score>  (72) 
0.29050766164849967

>  <SuCOS_Max_FeatureMap_Score>  (72) 
0.0092901831682884427

>  <SuCOS_Max_Protrude_Score>  (72) 
0.5717251401287109

>  <SuCOS_Max_Index>  (72) 
5

>  <SuCOS_Cum_Score>  (72) 
1.2966570173293843

>  <SuCOS_Cum_FeatureMap_Score>  (72) 
0.063209198456021798

>  <SuCOS_Cum_Protrude_Score>  (72) 
2.5301048362027467

$$$$
CN(CC#N)Cc1ccc(S(N)(=O)=O)cc1
     RDKit          3D

 16 16  0  0  0  0  0  0  0  0999 V2000
   11.6191    2.4782   22.0499 C   0  0  0  0  0  0  0  0  0  0  0  0
   11.4467    1.0166   22.0947 N   0  0  0  0  0  0  0  0  0  0  0  0
   12.4365    0.3842   23.0002 C   0  0  0  0  0  0  0  0  0  0  0  0
   13.1388   -0.7804   22.3211 C   0  0  0  0  0  0  0  0  0  0  0  0
   13.7214   -1.7464   21.7579 N   0  0  0  0  0  0  0  0  0  0  0  0
   10.0652    0.6576   22.4717 C   0  0  0  0  0  0  0  0  0  0  0  0
    9.1133    0.6382   21.2877 C   0  0  0  0  0  0  0  0  0  0  0  0
    7.9778    1.4676   21.2711 C   0  0  0  0  0  0  0  0  0  0  0  0
    7.0266    1.3544   20.2540 C   0  0  0  0  0  0  0  0  0  0  0  0
    7.2118    0.4091   19.2464 C   0  0  0  0  0  0  0  0  0  0  0  0
    5.9344    0.1419   17.9879 S   0  0  0  0  0  0  0  0  0  0  0  0
    4.5435    0.3958   18.7114 N   0  0  0  0  0  0  0  0  0  0  0  0
    6.2786    1.1498   16.9909 O   0  0  0  0  0  0  0  0  0  0  0  0
    6.1553   -1.2396   17.5737 O   0  0  0  0  0  0  0  0  0  0  0  0
    8.3492   -0.3996   19.2235 C   0  0  0  0  0  0  0  0  0  0  0  0
    9.3025   -0.2769   20.2364 C   0  0  0  0  0  0  0  0  0  0  0  0
  1  2  1  0
  2  3  1  0
  2  6  1  0
  3  4  1  0
  4  5  3  0
  6  7  1  0
  7  8  2  0
  7 16  1  0
  8  9  1  0
  9 10  2  0
 10 11  1  0
 10 15  1  0
 11 12  1  0
 11 13  2  0
 11 14  2  0
 15 16  2  0
M  END
>  <CHROM.1>  (73) 
-130.25649852,84.81408486,-121.20801883,-32.88763642,8.74386325,0.34324572
20.16490726,0.34720500,-0.48292967,0.66898111

>  <Name>  (73) 
CN(CC#N)Cc1ccc(S(N)(=O)=O)cc1

>  <RI>  (73) 
0

>  <Rbt.Current_Directory>  (73) 
/home/gse84885/github/im/docking-validation/targets/mpro/expts/jackall/work/Mpro-x0072_0/work/13/b2e6c565aaaabb41975e62df21c06f

>  <Rbt.Executable>  (73) 
rbdock ($Id: //depot/dev/client3/rdock/2013.1/src/exe/rbdock.cxx#4 $)

>  <Rbt.Library>  (73) 
libRbt.so (2013.1, Build901 2013/11/27)

>  <Rbt.Parameter_File>  (73) 
/rDock_2013.1/data/scripts/dock.prm

>  <Rbt.Receptor>  (73) 
docking-global.prm

>  <SCORE>  (73) 
-10.2647

>  <SCORE.INTER>  (73) 
-10.0152

>  <SCORE.INTER.CONST>  (73) 
1

>  <SCORE.INTER.POLAR>  (73) 
0

>  <SCORE.INTER.REPUL>  (73) 
0.0975178

>  <SCORE.INTER.ROT>  (73) 
4

>  <SCORE.INTER.VDW>  (73) 
-19.9028

>  <SCORE.INTER.norm>  (73) 
-0.625952

>  <SCORE.INTRA>  (73) 
-0.249483

>  <SCORE.INTRA.DIHEDRAL>  (73) 
3.16828

>  <SCORE.INTRA.DIHEDRAL.0>  (73) 
2.01542

>  <SCORE.INTRA.POLAR>  (73) 
0

>  <SCORE.INTRA.POLAR.0>  (73) 
0

>  <SCORE.INTRA.REPUL>  (73) 
0

>  <SCORE.INTRA.REPUL.0>  (73) 
0

>  <SCORE.INTRA.VDW>  (73) 
-1.83362

>  <SCORE.INTRA.VDW.0>  (73) 
0.396808

>  <SCORE.INTRA.norm>  (73) 
-0.0155927

>  <SCORE.RESTR>  (73) 
0

>  <SCORE.RESTR.CAVITY>  (73) 
0

>  <SCORE.RESTR.norm>  (73) 
0

>  <SCORE.SYSTEM>  (73) 
0

>  <SCORE.SYSTEM.CONST>  (73) 
0

>  <SCORE.SYSTEM.DIHEDRAL>  (73) 
0

>  <SCORE.SYSTEM.norm>  (73) 
0

>  <SCORE.heavy>  (73) 
16

>  <SCORE.norm>  (73) 
-0.641545

>  <XChemDeepScore>  (73) 
0.973815

>  <SuCOS_Max_Score>  (73) 
0.35929773951509275

>  <SuCOS_Max_FeatureMap_Score>  (73) 
0.067844853508917738

>  <SuCOS_Max_Protrude_Score>  (73) 
0.65075062552126772

>  <SuCOS_Max_Index>  (73) 
5

>  <SuCOS_Cum_Score>  (73) 
1.441430226599647

>  <SuCOS_Cum_FeatureMap_Score>  (73) 
0.092436168004614197

>  <SuCOS_Cum_Protrude_Score>  (73) 
2.7904242851946801

$$$$
CC(Sc1ccccc1)C(=O)NO
     RDKit          3D

 13 13  0  0  0  0  0  0  0  0999 V2000
   11.3699   -0.8358   21.8022 C   0  0  0  0  0  0  0  0  0  0  0  0
   12.1477    0.4426   22.1136 C   0  0  1  0  0  0  0  0  0  0  0  0
   11.1013    1.9338   21.7882 S   0  0  0  0  0  0  0  0  0  0  0  0
   12.2172    3.2547   22.2257 C   0  0  0  0  0  0  0  0  0  0  0  0
   12.4975    3.4744   23.5792 C   0  0  0  0  0  0  0  0  0  0  0  0
   13.3773    4.4864   23.9676 C   0  0  0  0  0  0  0  0  0  0  0  0
   13.9945    5.2801   23.0023 C   0  0  0  0  0  0  0  0  0  0  0  0
   13.7308    5.0600   21.6507 C   0  0  0  0  0  0  0  0  0  0  0  0
   12.8476    4.0487   21.2615 C   0  0  0  0  0  0  0  0  0  0  0  0
   12.6241    0.4407   23.5810 C   0  0  0  0  0  0  0  0  0  0  0  0
   13.8240    0.4723   23.8609 O   0  0  0  0  0  0  0  0  0  0  0  0
   11.5492    0.5151   24.4729 N   0  0  0  0  0  0  0  0  0  0  0  0
   11.8071    0.4429   25.8315 O   0  0  0  0  0  0  0  0  0  0  0  0
  2  1  1  1
  2  3  1  0
  2 10  1  0
  3  4  1  0
  4  5  2  0
  4  9  1  0
  5  6  1  0
  6  7  2  0
  7  8  1  0
  8  9  2  0
 10 11  2  0
 10 12  1  0
 12 13  1  0
M  END
>  <CHROM.1>  (74) 
179.82317500,118.47082326,-72.93612828,12.39678977,2.11233161,22.94343117
2.25771888,1.08890349,2.27246169

>  <Name>  (74) 
CC(Sc1ccccc1)C(=O)NO

>  <RI>  (74) 
0

>  <Rbt.Current_Directory>  (74) 
/home/gse84885/github/im/docking-validation/targets/mpro/expts/jackall/work/Mpro-x0072_0/work/dc/73d03adb4a7fa085ab18bffee1fbc7

>  <Rbt.Executable>  (74) 
rbdock ($Id: //depot/dev/client3/rdock/2013.1/src/exe/rbdock.cxx#4 $)

>  <Rbt.Library>  (74) 
libRbt.so (2013.1, Build901 2013/11/27)

>  <Rbt.Parameter_File>  (74) 
/rDock_2013.1/data/scripts/dock.prm

>  <Rbt.Receptor>  (74) 
docking-global.prm

>  <SCORE>  (74) 
-10.6644

>  <SCORE.INTER>  (74) 
-8.95236

>  <SCORE.INTER.CONST>  (74) 
1

>  <SCORE.INTER.POLAR>  (74) 
0

>  <SCORE.INTER.REPUL>  (74) 
0

>  <SCORE.INTER.ROT>  (74) 
3

>  <SCORE.INTER.VDW>  (74) 
-17.3524

>  <SCORE.INTER.norm>  (74) 
-0.688643

>  <SCORE.INTRA>  (74) 
-1.712

>  <SCORE.INTRA.DIHEDRAL>  (74) 
-0.063397

>  <SCORE.INTRA.DIHEDRAL.0>  (74) 
2.82253

>  <SCORE.INTRA.POLAR>  (74) 
0

>  <SCORE.INTRA.POLAR.0>  (74) 
0

>  <SCORE.INTRA.REPUL>  (74) 
0

>  <SCORE.INTRA.REPUL.0>  (74) 
0

>  <SCORE.INTRA.VDW>  (74) 
-1.6803

>  <SCORE.INTRA.VDW.0>  (74) 
0.179007

>  <SCORE.INTRA.norm>  (74) 
-0.131692

>  <SCORE.RESTR>  (74) 
0

>  <SCORE.RESTR.CAVITY>  (74) 
0

>  <SCORE.RESTR.norm>  (74) 
0

>  <SCORE.SYSTEM>  (74) 
0

>  <SCORE.SYSTEM.CONST>  (74) 
0

>  <SCORE.SYSTEM.DIHEDRAL>  (74) 
0

>  <SCORE.SYSTEM.norm>  (74) 
0

>  <SCORE.heavy>  (74) 
13

>  <SCORE.norm>  (74) 
-0.820335

>  <XChemDeepScore>  (74) 
0.973598

>  <SuCOS_Max_Score>  (74) 
0.28519299012241695

>  <SuCOS_Max_FeatureMap_Score>  (74) 
0.092260332307865289

>  <SuCOS_Max_Protrude_Score>  (74) 
0.47812564793696866

>  <SuCOS_Max_Index>  (74) 
1

>  <SuCOS_Cum_Score>  (74) 
1.4670171100419456

>  <SuCOS_Cum_FeatureMap_Score>  (74) 
0.2448959569269932

>  <SuCOS_Cum_Protrude_Score>  (74) 
2.6891382631568979

$$$$
COC(=O)c1cccc(C[S+]([O-])Cl)c1
     RDKit          3D

 14 14  0  0  0  0  0  0  0  0999 V2000
   13.6015   -0.6605   22.4253 C   0  0  0  0  0  0  0  0  0  0  0  0
   12.3973    0.0305   22.0901 O   0  0  0  0  0  0  0  0  0  0  0  0
   11.3664   -0.7813   21.7458 C   0  0  0  0  0  0  0  0  0  0  0  0
   11.4010   -1.9998   21.6949 O   0  0  0  0  0  0  0  0  0  0  0  0
   10.1633    0.0239   21.3972 C   0  0  0  0  0  0  0  0  0  0  0  0
   10.1672    1.3883   21.7164 C   0  0  0  0  0  0  0  0  0  0  0  0
    9.0532    2.1798   21.4374 C   0  0  0  0  0  0  0  0  0  0  0  0
    7.9284    1.6124   20.8408 C   0  0  0  0  0  0  0  0  0  0  0  0
    7.9028    0.2484   20.5133 C   0  0  0  0  0  0  0  0  0  0  0  0
    6.6573   -0.3608   19.9180 C   0  0  0  0  0  0  0  0  0  0  0  0
    6.7967   -0.5569   18.0992 S   0  0  1  0  0  0  0  0  0  0  0  0
    5.2216   -0.8165   17.8731 O   0  0  0  0  0  0  0  0  0  0  0  0
    6.8842    1.3431   17.5453 Cl  0  0  0  0  0  0  0  0  0  0  0  0
    9.0295   -0.5407   20.7925 C   0  0  0  0  0  0  0  0  0  0  0  0
  1  2  1  0
  2  3  1  0
  3  4  2  0
  3  5  1  0
  5  6  2  0
  5 14  1  0
  6  7  1  0
  7  8  2  0
  8  9  1  0
  9 10  1  0
  9 14  2  0
 10 11  1  0
 11 12  1  6
 11 13  1  0
M  END
>  <CHROM.1>  (75) 
-0.64576979,-12.34008910,100.62940091,-165.60933836,8.80458713,0.10523554
20.08645734,-0.04384500,0.62705378,-2.91382927

>  <Name>  (75) 
COC(=O)c1cccc(C[S+]([O-])Cl)c1

>  <RI>  (75) 
0

>  <Rbt.Current_Directory>  (75) 
/home/gse84885/github/im/docking-validation/targets/mpro/expts/jackall/work/Mpro-x0072_0/work/89/86e7149ae0e9b830113c403169f2e6

>  <Rbt.Executable>  (75) 
rbdock ($Id: //depot/dev/client3/rdock/2013.1/src/exe/rbdock.cxx#4 $)

>  <Rbt.Library>  (75) 
libRbt.so (2013.1, Build901 2013/11/27)

>  <Rbt.Parameter_File>  (75) 
/rDock_2013.1/data/scripts/dock.prm

>  <Rbt.Receptor>  (75) 
docking-global.prm

>  <SCORE>  (75) 
-7.53042

>  <SCORE.INTER>  (75) 
-7.72667

>  <SCORE.INTER.CONST>  (75) 
1

>  <SCORE.INTER.POLAR>  (75) 
0

>  <SCORE.INTER.REPUL>  (75) 
0.00364373

>  <SCORE.INTER.ROT>  (75) 
4

>  <SCORE.INTER.VDW>  (75) 
-17.1449

>  <SCORE.INTER.norm>  (75) 
-0.551905

>  <SCORE.INTRA>  (75) 
0.196245

>  <SCORE.INTRA.DIHEDRAL>  (75) 
0.291402

>  <SCORE.INTRA.DIHEDRAL.0>  (75) 
1.23477

>  <SCORE.INTRA.POLAR>  (75) 
0

>  <SCORE.INTRA.POLAR.0>  (75) 
0

>  <SCORE.INTRA.REPUL>  (75) 
0

>  <SCORE.INTRA.REPUL.0>  (75) 
0

>  <SCORE.INTRA.VDW>  (75) 
0.0505435

>  <SCORE.INTRA.VDW.0>  (75) 
0.905616

>  <SCORE.INTRA.norm>  (75) 
0.0140175

>  <SCORE.RESTR>  (75) 
0

>  <SCORE.RESTR.CAVITY>  (75) 
0

>  <SCORE.RESTR.norm>  (75) 
0

>  <SCORE.SYSTEM>  (75) 
0

>  <SCORE.SYSTEM.CONST>  (75) 
0

>  <SCORE.SYSTEM.DIHEDRAL>  (75) 
0

>  <SCORE.SYSTEM.norm>  (75) 
0

>  <SCORE.heavy>  (75) 
14

>  <SCORE.norm>  (75) 
-0.537887

>  <XChemDeepScore>  (75) 
0.972473

>  <SuCOS_Max_Score>  (75) 
0.30880686929726853

>  <SuCOS_Max_FeatureMap_Score>  (75) 
0.0026616353042413512

>  <SuCOS_Max_Protrude_Score>  (75) 
0.6149521032902957

>  <SuCOS_Max_Index>  (75) 
5

>  <SuCOS_Cum_Score>  (75) 
1.2184095990975568

>  <SuCOS_Cum_FeatureMap_Score>  (75) 
0.024934870554819258

>  <SuCOS_Cum_Protrude_Score>  (75) 
2.4118843276402941

$$$$
N[C@H](CCc1ccccc1S(N)(=O)=O)C(=O)O
     RDKit          3D

 17 17  0  0  0  0  0  0  0  0999 V2000
   13.6294   -0.4142   22.9296 N   0  0  0  0  0  0  0  0  0  0  0  0
   12.6708   -1.3440   22.0689 S   0  0  0  0  0  0  0  0  0  0  0  0
   13.1956   -1.7065   20.7614 O   0  0  0  0  0  0  0  0  0  0  0  0
   12.1387   -2.4774   22.8274 O   0  0  0  0  0  0  0  0  0  0  0  0
   11.1526   -0.3655   21.7483 C   0  0  0  0  0  0  0  0  0  0  0  0
   10.0425   -1.1630   21.4103 C   0  0  0  0  0  0  0  0  0  0  0  0
    8.8446   -0.5881   21.0019 C   0  0  0  0  0  0  0  0  0  0  0  0
    8.7569    0.7914   20.9021 C   0  0  0  0  0  0  0  0  0  0  0  0
    9.8446    1.5902   21.2618 C   0  0  0  0  0  0  0  0  0  0  0  0
   11.0553    1.0432   21.7441 C   0  0  0  0  0  0  0  0  0  0  0  0
   12.1601    1.9806   22.1814 C   0  0  0  0  0  0  0  0  0  0  0  0
   11.7722    3.2011   23.0557 C   0  0  0  0  0  0  0  0  0  0  0  0
   12.9183    4.1839   23.3780 C   0  0  1  0  0  0  0  0  0  0  0  0
   13.4895    4.7975   22.1433 N   0  0  0  0  0  0  0  0  0  0  0  0
   12.3155    5.3209   24.2955 C   0  0  0  0  0  0  0  0  0  0  0  0
   12.6858    5.2922   25.5128 O   0  0  0  0  0  0  0  0  0  0  0  0
   11.5480    6.1439   23.7174 O   0  0  0  0  0  0  0  0  0  0  0  0
  1  2  1  0
  2  3  2  0
  2  4  2  0
  2  5  1  0
  5  6  2  0
  5 10  1  0
  6  7  1  0
  7  8  2  0
  8  9  1  0
  9 10  2  0
 10 11  1  0
 11 12  1  0
 12 13  1  0
 13 14  1  6
 13 15  1  0
 15 16  2  0
 15 17  1  0
M  END
>  <CHROM.1>  (76) 
-159.49251736,-137.35757374,-175.29662830,61.40490638,108.55184084,11.78955130
1.34943921,22.42066749,-1.69968621,-0.39192687,0.28058438

>  <Name>  (76) 
N[C@H](CCc1ccccc1S(N)(=O)=O)C(=O)O

>  <RI>  (76) 
0

>  <Rbt.Current_Directory>  (76) 
/home/gse84885/github/im/docking-validation/targets/mpro/expts/jackall/work/Mpro-x0072_0/work/7f/50441bc4bbc3e262e845fab9b9c6d0

>  <Rbt.Executable>  (76) 
rbdock ($Id: //depot/dev/client3/rdock/2013.1/src/exe/rbdock.cxx#4 $)

>  <Rbt.Library>  (76) 
libRbt.so (2013.1, Build901 2013/11/27)

>  <Rbt.Parameter_File>  (76) 
/rDock_2013.1/data/scripts/dock.prm

>  <Rbt.Receptor>  (76) 
docking-global.prm

>  <SCORE>  (76) 
-8.49086

>  <SCORE.INTER>  (76) 
-8.28878

>  <SCORE.INTER.CONST>  (76) 
1

>  <SCORE.INTER.POLAR>  (76) 
0

>  <SCORE.INTER.REPUL>  (76) 
0

>  <SCORE.INTER.ROT>  (76) 
5

>  <SCORE.INTER.VDW>  (76) 
-18.6888

>  <SCORE.INTER.norm>  (76) 
-0.487575

>  <SCORE.INTRA>  (76) 
-0.202087

>  <SCORE.INTRA.DIHEDRAL>  (76) 
-0.193454

>  <SCORE.INTRA.DIHEDRAL.0>  (76) 
4.29849

>  <SCORE.INTRA.POLAR>  (76) 
0

>  <SCORE.INTRA.POLAR.0>  (76) 
0

>  <SCORE.INTRA.REPUL>  (76) 
0

>  <SCORE.INTRA.REPUL.0>  (76) 
0

>  <SCORE.INTRA.VDW>  (76) 
-0.10536

>  <SCORE.INTRA.VDW.0>  (76) 
-0.8679

>  <SCORE.INTRA.norm>  (76) 
-0.0118875

>  <SCORE.RESTR>  (76) 
0

>  <SCORE.RESTR.CAVITY>  (76) 
0

>  <SCORE.RESTR.norm>  (76) 
0

>  <SCORE.SYSTEM>  (76) 
0

>  <SCORE.SYSTEM.CONST>  (76) 
0

>  <SCORE.SYSTEM.DIHEDRAL>  (76) 
0

>  <SCORE.SYSTEM.norm>  (76) 
0

>  <SCORE.heavy>  (76) 
17

>  <SCORE.norm>  (76) 
-0.499463

>  <XChemDeepScore>  (76) 
0.972415

>  <SuCOS_Max_Score>  (76) 
0.38887774548184018

>  <SuCOS_Max_FeatureMap_Score>  (76) 
0.21288060681168774

>  <SuCOS_Max_Protrude_Score>  (76) 
0.56487488415199261

>  <SuCOS_Max_Index>  (76) 
2

>  <SuCOS_Cum_Score>  (76) 
1.9580132938562336

>  <SuCOS_Cum_FeatureMap_Score>  (76) 
0.69507091840982493

>  <SuCOS_Cum_Protrude_Score>  (76) 
3.2209556693026427

$$$$
COC(=O)c1ccccc1CCC(=O)C(=O)O
     RDKit          3D

 17 17  0  0  0  0  0  0  0  0999 V2000
    7.9773    2.1071   21.4875 C   0  0  0  0  0  0  0  0  0  0  0  0
    9.3122    1.8749   21.9389 O   0  0  0  0  0  0  0  0  0  0  0  0
    9.9588    0.8202   21.4047 C   0  0  0  0  0  0  0  0  0  0  0  0
    9.4949    0.0302   20.5950 O   0  0  0  0  0  0  0  0  0  0  0  0
   11.3119    0.6570   22.0154 C   0  0  0  0  0  0  0  0  0  0  0  0
   11.9782   -0.5343   21.6626 C   0  0  0  0  0  0  0  0  0  0  0  0
   13.2422   -0.8336   22.1690 C   0  0  0  0  0  0  0  0  0  0  0  0
   13.8628    0.0568   23.0349 C   0  0  0  0  0  0  0  0  0  0  0  0
   13.2248    1.2487   23.3828 C   0  0  0  0  0  0  0  0  0  0  0  0
   11.9496    1.5786   22.8756 C   0  0  0  0  0  0  0  0  0  0  0  0
   11.3671    2.9147   23.2981 C   0  0  0  0  0  0  0  0  0  0  0  0
   12.2286    4.0927   22.8552 C   0  0  0  0  0  0  0  0  0  0  0  0
   11.6265    5.4209   23.2583 C   0  0  0  0  0  0  0  0  0  0  0  0
   10.8373    6.0602   22.5604 O   0  0  0  0  0  0  0  0  0  0  0  0
   12.0466    6.0102   24.6129 C   0  0  0  0  0  0  0  0  0  0  0  0
   12.8686    5.2985   25.2772 O   0  0  0  0  0  0  0  0  0  0  0  0
   11.5567    7.1273   24.9607 O   0  0  0  0  0  0  0  0  0  0  0  0
  1  2  1  0
  2  3  1  0
  3  4  2  0
  3  5  1  0
  5  6  2  0
  5 10  1  0
  6  7  1  0
  7  8  2  0
  8  9  1  0
  9 10  2  0
 10 11  1  0
 11 12  1  0
 12 13  1  0
 13 14  2  0
 13 15  1  0
 15 16  2  0
 15 17  1  0
M  END
>  <CHROM.1>  (77) 
-1.81556794,170.96040174,-118.64663631,178.92615539,-89.48798849,-0.56863936
11.39517522,2.67588977,22.79562125,1.69458114,0.44210790,-2.78481788

>  <Name>  (77) 
COC(=O)c1ccccc1CCC(=O)C(=O)O

>  <RI>  (77) 
0

>  <Rbt.Current_Directory>  (77) 
/home/gse84885/github/im/docking-validation/targets/mpro/expts/jackall/work/Mpro-x0072_0/work/fe/4a64eec6f9384b49f08070133be6c2

>  <Rbt.Executable>  (77) 
rbdock ($Id: //depot/dev/client3/rdock/2013.1/src/exe/rbdock.cxx#4 $)

>  <Rbt.Library>  (77) 
libRbt.so (2013.1, Build901 2013/11/27)

>  <Rbt.Parameter_File>  (77) 
/rDock_2013.1/data/scripts/dock.prm

>  <Rbt.Receptor>  (77) 
docking-global.prm

>  <SCORE>  (77) 
-7.11689

>  <SCORE.INTER>  (77) 
-6.17273

>  <SCORE.INTER.CONST>  (77) 
1

>  <SCORE.INTER.POLAR>  (77) 
0

>  <SCORE.INTER.REPUL>  (77) 
0

>  <SCORE.INTER.ROT>  (77) 
6

>  <SCORE.INTER.VDW>  (77) 
-17.5727

>  <SCORE.INTER.norm>  (77) 
-0.363102

>  <SCORE.INTRA>  (77) 
-0.944156

>  <SCORE.INTRA.DIHEDRAL>  (77) 
-3.24868

>  <SCORE.INTRA.DIHEDRAL.0>  (77) 
6.10177

>  <SCORE.INTRA.POLAR>  (77) 
0

>  <SCORE.INTRA.POLAR.0>  (77) 
0

>  <SCORE.INTRA.REPUL>  (77) 
0

>  <SCORE.INTRA.REPUL.0>  (77) 
0

>  <SCORE.INTRA.VDW>  (77) 
0.680185

>  <SCORE.INTRA.VDW.0>  (77) 
1.15044

>  <SCORE.INTRA.norm>  (77) 
-0.0555386

>  <SCORE.RESTR>  (77) 
0

>  <SCORE.RESTR.CAVITY>  (77) 
0

>  <SCORE.RESTR.norm>  (77) 
0

>  <SCORE.SYSTEM>  (77) 
0

>  <SCORE.SYSTEM.CONST>  (77) 
0

>  <SCORE.SYSTEM.DIHEDRAL>  (77) 
0

>  <SCORE.SYSTEM.norm>  (77) 
0

>  <SCORE.heavy>  (77) 
17

>  <SCORE.norm>  (77) 
-0.418641

>  <XChemDeepScore>  (77) 
0.972380

>  <SuCOS_Max_Score>  (77) 
0.4108730536132762

>  <SuCOS_Max_FeatureMap_Score>  (77) 
0.25304540153954541

>  <SuCOS_Max_Protrude_Score>  (77) 
0.56870070568700704

>  <SuCOS_Max_Index>  (77) 
1

>  <SuCOS_Cum_Score>  (77) 
1.9964798465774791

>  <SuCOS_Cum_FeatureMap_Score>  (77) 
0.99509366073201566

>  <SuCOS_Cum_Protrude_Score>  (77) 
2.9978660324229423

$$$$
O=S(=O)(OC(c1ccccc1)c1ccncc1)C(F)(F)F
     RDKit          3D

 21 22  0  0  0  0  0  0  0  0999 V2000
    7.5863    1.2267   19.5495 O   0  0  0  0  0  0  0  0  0  0  0  0
    7.6248   -0.1639   19.1349 S   0  0  0  0  0  0  0  0  0  0  0  0
    8.6276   -0.6084   18.1777 O   0  0  0  0  0  0  0  0  0  0  0  0
    7.7985   -1.0786   20.4799 O   0  0  0  0  0  0  0  0  0  0  0  0
    9.1043   -1.1846   21.0454 C   0  0  1  0  0  0  0  0  0  0  0  0
    9.5202    0.1967   21.5589 C   0  0  0  0  0  0  0  0  0  0  0  0
    8.6219    1.0290   22.2517 C   0  0  0  0  0  0  0  0  0  0  0  0
    9.0038    2.2951   22.6995 C   0  0  0  0  0  0  0  0  0  0  0  0
   10.2854    2.7659   22.4479 C   0  0  0  0  0  0  0  0  0  0  0  0
   11.1971    1.9598   21.7659 C   0  0  0  0  0  0  0  0  0  0  0  0
   10.8218    0.6820   21.3337 C   0  0  0  0  0  0  0  0  0  0  0  0
    9.1527   -2.2673   22.1119 C   0  0  0  0  0  0  0  0  0  0  0  0
   10.2244   -2.3245   23.0108 C   0  0  0  0  0  0  0  0  0  0  0  0
   10.2343   -3.3206   23.9773 C   0  0  0  0  0  0  0  0  0  0  0  0
    9.2682   -4.2516   24.1127 N   0  0  0  0  0  0  0  0  0  0  0  0
    8.2648   -4.2104   23.2154 C   0  0  0  0  0  0  0  0  0  0  0  0
    8.1741   -3.2653   22.2068 C   0  0  0  0  0  0  0  0  0  0  0  0
    5.9491   -0.7334   18.5986 C   0  0  0  0  0  0  0  0  0  0  0  0
    5.5240   -0.1196   17.4563 F   0  0  0  0  0  0  0  0  0  0  0  0
    5.9147   -2.0748   18.3498 F   0  0  0  0  0  0  0  0  0  0  0  0
    4.9920   -0.4940   19.5418 F   0  0  0  0  0  0  0  0  0  0  0  0
  1  2  2  0
  2  3  2  0
  2  4  1  0
  2 18  1  0
  5  4  1  1
  5  6  1  0
  5 12  1  0
  6  7  2  0
  6 11  1  0
  7  8  1  0
  8  9  2  0
  9 10  1  0
 10 11  2  0
 12 13  2  0
 12 17  1  0
 13 14  1  0
 14 15  2  0
 15 16  1  0
 16 17  2  0
 18 19  1  0
 18 20  1  0
 18 21  1  0
M  END
>  <CHROM.1>  (78) 
-79.14867808,67.01499272,65.69781411,42.21554027,-164.52517893,8.24274845
-0.72327322,20.79400859,-2.58007757,0.79480124,2.70478604

>  <Name>  (78) 
O=S(=O)(OC(c1ccccc1)c1ccncc1)C(F)(F)F

>  <RI>  (78) 
0

>  <Rbt.Current_Directory>  (78) 
/home/gse84885/github/im/docking-validation/targets/mpro/expts/jackall/work/Mpro-x0072_0/work/eb/2f8b350233f7979effb7ff065dea40

>  <Rbt.Executable>  (78) 
rbdock ($Id: //depot/dev/client3/rdock/2013.1/src/exe/rbdock.cxx#4 $)

>  <Rbt.Library>  (78) 
libRbt.so (2013.1, Build901 2013/11/27)

>  <Rbt.Parameter_File>  (78) 
/rDock_2013.1/data/scripts/dock.prm

>  <Rbt.Receptor>  (78) 
docking-global.prm

>  <SCORE>  (78) 
-10.0201

>  <SCORE.INTER>  (78) 
-8.25391

>  <SCORE.INTER.CONST>  (78) 
1

>  <SCORE.INTER.POLAR>  (78) 
0

>  <SCORE.INTER.REPUL>  (78) 
0

>  <SCORE.INTER.ROT>  (78) 
5

>  <SCORE.INTER.VDW>  (78) 
-18.6539

>  <SCORE.INTER.norm>  (78) 
-0.393044

>  <SCORE.INTRA>  (78) 
-1.76616

>  <SCORE.INTRA.DIHEDRAL>  (78) 
-4.16791

>  <SCORE.INTRA.DIHEDRAL.0>  (78) 
6.13478

>  <SCORE.INTRA.POLAR>  (78) 
0

>  <SCORE.INTRA.POLAR.0>  (78) 
0

>  <SCORE.INTRA.REPUL>  (78) 
0

>  <SCORE.INTRA.REPUL.0>  (78) 
0

>  <SCORE.INTRA.VDW>  (78) 
0.317795

>  <SCORE.INTRA.VDW.0>  (78) 
-3.59291

>  <SCORE.INTRA.norm>  (78) 
-0.084103

>  <SCORE.RESTR>  (78) 
0

>  <SCORE.RESTR.CAVITY>  (78) 
0

>  <SCORE.RESTR.norm>  (78) 
0

>  <SCORE.SYSTEM>  (78) 
0

>  <SCORE.SYSTEM.CONST>  (78) 
0

>  <SCORE.SYSTEM.DIHEDRAL>  (78) 
0

>  <SCORE.SYSTEM.norm>  (78) 
0

>  <SCORE.heavy>  (78) 
21

>  <SCORE.norm>  (78) 
-0.477146

>  <XChemDeepScore>  (78) 
0.972368

>  <SuCOS_Max_Score>  (78) 
0.26198702445055777

>  <SuCOS_Max_FeatureMap_Score>  (78) 
0.0026509783789602876

>  <SuCOS_Max_Protrude_Score>  (78) 
0.52132307052215521

>  <SuCOS_Max_Index>  (78) 
5

>  <SuCOS_Cum_Score>  (78) 
1.0500475284557185

>  <SuCOS_Cum_FeatureMap_Score>  (78) 
0.05965749094420611

>  <SuCOS_Cum_Protrude_Score>  (78) 
2.0404375659672307

$$$$
COCCN(C)C(=O)c1ccc(S(N)(=O)=O)cc1
     RDKit          3D

 18 18  0  0  0  0  0  0  0  0999 V2000
   13.1733    4.5051   22.6925 C   0  0  0  0  0  0  0  0  0  0  0  0
   12.2584    3.5060   23.1186 O   0  0  0  0  0  0  0  0  0  0  0  0
   12.9239    2.2593   23.3622 C   0  0  0  0  0  0  0  0  0  0  0  0
   11.8772    1.2052   23.7344 C   0  0  0  0  0  0  0  0  0  0  0  0
   11.0078    0.7987   22.6259 N   0  0  0  0  0  0  0  0  0  0  0  0
   11.4619   -0.3176   21.8079 C   0  0  0  0  0  0  0  0  0  0  0  0
    9.8971    1.6088   22.3407 C   0  0  0  0  0  0  0  0  0  0  0  0
    9.6911    2.6518   22.9625 O   0  0  0  0  0  0  0  0  0  0  0  0
    8.9240    1.2430   21.2704 C   0  0  0  0  0  0  0  0  0  0  0  0
    9.1485    0.2007   20.3613 C   0  0  0  0  0  0  0  0  0  0  0  0
    8.2195   -0.0712   19.3541 C   0  0  0  0  0  0  0  0  0  0  0  0
    7.0290    0.6546   19.3045 C   0  0  0  0  0  0  0  0  0  0  0  0
    5.8520    0.2613   17.9914 S   0  0  0  0  0  0  0  0  0  0  0  0
    4.4103    0.5291   18.6068 N   0  0  0  0  0  0  0  0  0  0  0  0
    6.2159    1.1824   16.9228 O   0  0  0  0  0  0  0  0  0  0  0  0
    6.1534   -1.1446   17.7317 O   0  0  0  0  0  0  0  0  0  0  0  0
    6.7517    1.6468   20.2446 C   0  0  0  0  0  0  0  0  0  0  0  0
    7.7025    1.9417   21.2262 C   0  0  0  0  0  0  0  0  0  0  0  0
  1  2  1  0
  2  3  1  0
  3  4  1  0
  4  5  1  0
  5  6  1  0
  5  7  1  0
  7  8  2  0
  7  9  1  0
  9 10  2  0
  9 18  1  0
 10 11  1  0
 11 12  2  0
 12 13  1  0
 12 17  1  0
 13 14  1  0
 13 15  2  0
 13 16  2  0
 17 18  2  0
M  END
>  <CHROM.1>  (79) 
-176.60179488,69.96167964,89.39694818,-9.69349915,147.85600438,8.86299974
1.21410541,20.67447308,0.41516250,-0.60796721,0.23946995

>  <Name>  (79) 
COCCN(C)C(=O)c1ccc(S(N)(=O)=O)cc1

>  <RI>  (79) 
0

>  <Rbt.Current_Directory>  (79) 
/home/gse84885/github/im/docking-validation/targets/mpro/expts/jackall/work/Mpro-x0072_0/work/60/92a408fda7e1d67ebdf2a5b4113914

>  <Rbt.Executable>  (79) 
rbdock ($Id: //depot/dev/client3/rdock/2013.1/src/exe/rbdock.cxx#4 $)

>  <Rbt.Library>  (79) 
libRbt.so (2013.1, Build901 2013/11/27)

>  <Rbt.Parameter_File>  (79) 
/rDock_2013.1/data/scripts/dock.prm

>  <Rbt.Receptor>  (79) 
docking-global.prm

>  <SCORE>  (79) 
-9.05712

>  <SCORE.INTER>  (79) 
-9.62743

>  <SCORE.INTER.CONST>  (79) 
1

>  <SCORE.INTER.POLAR>  (79) 
0

>  <SCORE.INTER.REPUL>  (79) 
0.00119532

>  <SCORE.INTER.ROT>  (79) 
5

>  <SCORE.INTER.VDW>  (79) 
-20.0334

>  <SCORE.INTER.norm>  (79) 
-0.534857

>  <SCORE.INTRA>  (79) 
0.570314

>  <SCORE.INTRA.DIHEDRAL>  (79) 
-3.71277

>  <SCORE.INTRA.DIHEDRAL.0>  (79) 
6.82944

>  <SCORE.INTRA.POLAR>  (79) 
0

>  <SCORE.INTRA.POLAR.0>  (79) 
0

>  <SCORE.INTRA.REPUL>  (79) 
0

>  <SCORE.INTRA.REPUL.0>  (79) 
0

>  <SCORE.INTRA.VDW>  (79) 
2.4267

>  <SCORE.INTRA.VDW.0>  (79) 
-0.54771

>  <SCORE.INTRA.norm>  (79) 
0.0316841

>  <SCORE.RESTR>  (79) 
0

>  <SCORE.RESTR.CAVITY>  (79) 
0

>  <SCORE.RESTR.norm>  (79) 
0

>  <SCORE.SYSTEM>  (79) 
0

>  <SCORE.SYSTEM.CONST>  (79) 
0

>  <SCORE.SYSTEM.DIHEDRAL>  (79) 
0

>  <SCORE.SYSTEM.norm>  (79) 
0

>  <SCORE.heavy>  (79) 
18

>  <SCORE.norm>  (79) 
-0.503173

>  <XChemDeepScore>  (79) 
0.972262

>  <SuCOS_Max_Score>  (79) 
0.33467360832403448

>  <SuCOS_Max_FeatureMap_Score>  (79) 
0.059545339692907283

>  <SuCOS_Max_Protrude_Score>  (79) 
0.60980187695516164

>  <SuCOS_Max_Index>  (79) 
5

>  <SuCOS_Cum_Score>  (79) 
1.4308037381418792

>  <SuCOS_Cum_FeatureMap_Score>  (79) 
0.084623148761681311

>  <SuCOS_Cum_Protrude_Score>  (79) 
2.7769843275220776

$$$$
CC(C)(c1ccc(S(N)(=O)=O)cc1)C(N)C(=O)O
     RDKit          3D

 18 18  0  0  0  0  0  0  0  0999 V2000
   11.1223    2.3109   21.9353 C   0  0  0  0  0  0  0  0  0  0  0  0
   10.3273    1.0389   22.3078 C   0  0  0  0  0  0  0  0  0  0  0  0
    9.7281    1.2960   23.7203 C   0  0  0  0  0  0  0  0  0  0  0  0
    9.1919    0.8412   21.2556 C   0  0  0  0  0  0  0  0  0  0  0  0
    9.2871   -0.1667   20.2694 C   0  0  0  0  0  0  0  0  0  0  0  0
    8.2791   -0.3750   19.3269 C   0  0  0  0  0  0  0  0  0  0  0  0
    7.1749    0.4668   19.3086 C   0  0  0  0  0  0  0  0  0  0  0  0
    5.9361    0.2213   18.0143 S   0  0  0  0  0  0  0  0  0  0  0  0
    4.5366    0.4967   18.7118 N   0  0  0  0  0  0  0  0  0  0  0  0
    6.3066    1.2142   17.0108 O   0  0  0  0  0  0  0  0  0  0  0  0
    6.1682   -1.1645   17.6339 O   0  0  0  0  0  0  0  0  0  0  0  0
    7.0604    1.5035   20.2263 C   0  0  0  0  0  0  0  0  0  0  0  0
    8.0535    1.6749   21.2009 C   0  0  0  0  0  0  0  0  0  0  0  0
   11.2508   -0.2236   22.3963 C   0  0  1  0  0  0  0  0  0  0  0  0
   12.4554   -0.0023   23.3206 N   0  0  0  0  0  0  0  0  0  0  0  0
   10.7062   -1.6465   22.7964 C   0  0  0  0  0  0  0  0  0  0  0  0
   10.3371   -2.4380   21.9079 O   0  0  0  0  0  0  0  0  0  0  0  0
   10.6023   -1.7048   24.0712 O   0  0  0  0  0  0  0  0  0  0  0  0
  1  2  1  0
  2  3  1  0
  2  4  1  0
  2 14  1  0
  4  5  2  0
  4 13  1  0
  5  6  1  0
  6  7  2  0
  7  8  1  0
  7 12  1  0
  8  9  1  0
  8 10  2  0
  8 11  2  0
 12 13  2  0
 14 15  1  1
 14 16  1  0
 16 17  2  0
 16 18  1  0
M  END
>  <CHROM.1>  (80) 
105.82677555,52.72332476,142.55740568,92.38099881,8.59606232,0.15932945,20.64511441
-0.00275532,-0.78197936,0.10902802

>  <Name>  (80) 
CC(C)(c1ccc(S(N)(=O)=O)cc1)C(N)C(=O)O

>  <RI>  (80) 
0

>  <Rbt.Current_Directory>  (80) 
/home/gse84885/github/im/docking-validation/targets/mpro/expts/jackall/work/Mpro-x0072_0/work/9f/08d04434470fadfc6037692cf00258

>  <Rbt.Executable>  (80) 
rbdock ($Id: //depot/dev/client3/rdock/2013.1/src/exe/rbdock.cxx#4 $)

>  <Rbt.Library>  (80) 
libRbt.so (2013.1, Build901 2013/11/27)

>  <Rbt.Parameter_File>  (80) 
/rDock_2013.1/data/scripts/dock.prm

>  <Rbt.Receptor>  (80) 
docking-global.prm

>  <SCORE>  (80) 
-9.79536

>  <SCORE.INTER>  (80) 
-8.34788

>  <SCORE.INTER.CONST>  (80) 
1

>  <SCORE.INTER.POLAR>  (80) 
0

>  <SCORE.INTER.REPUL>  (80) 
0.0352306

>  <SCORE.INTER.ROT>  (80) 
4

>  <SCORE.INTER.VDW>  (80) 
-17.924

>  <SCORE.INTER.norm>  (80) 
-0.463771

>  <SCORE.INTRA>  (80) 
-1.44748

>  <SCORE.INTRA.DIHEDRAL>  (80) 
0.297209

>  <SCORE.INTRA.DIHEDRAL.0>  (80) 
4.13129

>  <SCORE.INTRA.POLAR>  (80) 
0

>  <SCORE.INTRA.POLAR.0>  (80) 
0

>  <SCORE.INTRA.REPUL>  (80) 
0

>  <SCORE.INTRA.REPUL.0>  (80) 
0

>  <SCORE.INTRA.VDW>  (80) 
-1.59608

>  <SCORE.INTRA.VDW.0>  (80) 
1.48907

>  <SCORE.INTRA.norm>  (80) 
-0.0804155

>  <SCORE.RESTR>  (80) 
0

>  <SCORE.RESTR.CAVITY>  (80) 
0

>  <SCORE.RESTR.norm>  (80) 
0

>  <SCORE.SYSTEM>  (80) 
0

>  <SCORE.SYSTEM.CONST>  (80) 
0

>  <SCORE.SYSTEM.DIHEDRAL>  (80) 
0

>  <SCORE.SYSTEM.norm>  (80) 
0

>  <SCORE.heavy>  (80) 
18

>  <SCORE.norm>  (80) 
-0.544187

>  <XChemDeepScore>  (80) 
0.971867

>  <SuCOS_Max_Score>  (80) 
0.38045801031607845

>  <SuCOS_Max_FeatureMap_Score>  (80) 
0.06851253370812202

>  <SuCOS_Max_Protrude_Score>  (80) 
0.69240348692403486

>  <SuCOS_Max_Index>  (80) 
5

>  <SuCOS_Cum_Score>  (80) 
1.5857752776131873

>  <SuCOS_Cum_FeatureMap_Score>  (80) 
0.11179293107158311

>  <SuCOS_Cum_Protrude_Score>  (80) 
3.0597576241547917

$$$$
NC(CCCOCc1ccccc1)Cc1cccnc1
     RDKit          3D

 20 21  0  0  0  0  0  0  0  0999 V2000
   13.1714    0.9155   23.8858 N   0  0  0  0  0  0  0  0  0  0  0  0
   12.5318    1.1302   22.5850 C   0  0  1  0  0  0  0  0  0  0  0  0
   11.7138   -0.1088   22.1657 C   0  0  0  0  0  0  0  0  0  0  0  0
   10.6200   -0.4890   23.1649 C   0  0  0  0  0  0  0  0  0  0  0  0
    9.5839   -1.4072   22.5300 C   0  0  0  0  0  0  0  0  0  0  0  0
    8.8725   -0.6539   21.5536 O   0  0  0  0  0  0  0  0  0  0  0  0
    7.7766   -1.3931   21.0174 C   0  0  0  0  0  0  0  0  0  0  0  0
    7.1163   -0.6237   19.9012 C   0  0  0  0  0  0  0  0  0  0  0  0
    5.7164   -0.5811   19.8226 C   0  0  0  0  0  0  0  0  0  0  0  0
    5.0835    0.1427   18.8113 C   0  0  0  0  0  0  0  0  0  0  0  0
    5.8417    0.8439   17.8758 C   0  0  0  0  0  0  0  0  0  0  0  0
    7.2323    0.8274   17.9549 C   0  0  0  0  0  0  0  0  0  0  0  0
    7.8657    0.1045   18.9661 C   0  0  0  0  0  0  0  0  0  0  0  0
   11.6102    2.3702   22.6358 C   0  0  0  0  0  0  0  0  0  0  0  0
   12.3443    3.6844   22.7098 C   0  0  0  0  0  0  0  0  0  0  0  0
   12.9763    4.2389   21.5955 C   0  0  0  0  0  0  0  0  0  0  0  0
   13.6257    5.4651   21.7130 C   0  0  0  0  0  0  0  0  0  0  0  0
   13.6288    6.0942   22.9475 C   0  0  0  0  0  0  0  0  0  0  0  0
   13.0475    5.5829   24.0502 N   0  0  0  0  0  0  0  0  0  0  0  0
   12.4305    4.3880   23.9091 C   0  0  0  0  0  0  0  0  0  0  0  0
  2  1  1  1
  2  3  1  0
  2 14  1  0
  3  4  1  0
  4  5  1  0
  5  6  1  0
  6  7  1  0
  7  8  1  0
  8  9  2  0
  8 13  1  0
  9 10  1  0
 10 11  2  0
 11 12  1  0
 12 13  2  0
 14 15  1  0
 15 16  2  0
 15 20  1  0
 16 17  1  0
 17 18  2  0
 18 19  1  0
 19 20  2  0
M  END
>  <CHROM.1>  (81) 
58.55189074,71.46799886,162.16200274,-67.87286206,-173.20251858,-174.93446798
-137.35000903,75.48118757,10.15260084,1.48245998,21.52536736,-0.33556998
0.67222638,2.75170867

>  <Name>  (81) 
NC(CCCOCc1ccccc1)Cc1cccnc1

>  <RI>  (81) 
0

>  <Rbt.Current_Directory>  (81) 
/home/gse84885/github/im/docking-validation/targets/mpro/expts/jackall/work/Mpro-x0072_0/work/4e/1b6a20a985234d74c439b04660d7ef

>  <Rbt.Executable>  (81) 
rbdock ($Id: //depot/dev/client3/rdock/2013.1/src/exe/rbdock.cxx#4 $)

>  <Rbt.Library>  (81) 
libRbt.so (2013.1, Build901 2013/11/27)

>  <Rbt.Parameter_File>  (81) 
/rDock_2013.1/data/scripts/dock.prm

>  <Rbt.Receptor>  (81) 
docking-global.prm

>  <SCORE>  (81) 
-8.51153

>  <SCORE.INTER>  (81) 
-10.1823

>  <SCORE.INTER.CONST>  (81) 
1

>  <SCORE.INTER.POLAR>  (81) 
0

>  <SCORE.INTER.REPUL>  (81) 
0

>  <SCORE.INTER.ROT>  (81) 
8

>  <SCORE.INTER.VDW>  (81) 
-23.5823

>  <SCORE.INTER.norm>  (81) 
-0.509113

>  <SCORE.INTRA>  (81) 
1.67073

>  <SCORE.INTRA.DIHEDRAL>  (81) 
2.16789

>  <SCORE.INTRA.DIHEDRAL.0>  (81) 
1.54919

>  <SCORE.INTRA.POLAR>  (81) 
0

>  <SCORE.INTRA.POLAR.0>  (81) 
0

>  <SCORE.INTRA.REPUL>  (81) 
0

>  <SCORE.INTRA.REPUL.0>  (81) 
0

>  <SCORE.INTRA.VDW>  (81) 
0.586785

>  <SCORE.INTRA.VDW.0>  (81) 
-1.49647

>  <SCORE.INTRA.norm>  (81) 
0.0835365

>  <SCORE.RESTR>  (81) 
0

>  <SCORE.RESTR.CAVITY>  (81) 
0

>  <SCORE.RESTR.norm>  (81) 
0

>  <SCORE.SYSTEM>  (81) 
0

>  <SCORE.SYSTEM.CONST>  (81) 
0

>  <SCORE.SYSTEM.DIHEDRAL>  (81) 
0

>  <SCORE.SYSTEM.norm>  (81) 
0

>  <SCORE.heavy>  (81) 
20

>  <SCORE.norm>  (81) 
-0.425576

>  <XChemDeepScore>  (81) 
0.971717

>  <SuCOS_Max_Score>  (81) 
0.46240253368641887

>  <SuCOS_Max_FeatureMap_Score>  (81) 
0.31910340104077595

>  <SuCOS_Max_Protrude_Score>  (81) 
0.60570166633206179

>  <SuCOS_Max_Index>  (81) 
6

>  <SuCOS_Cum_Score>  (81) 
2.0937369114658804

>  <SuCOS_Cum_FeatureMap_Score>  (81) 
0.80609335356144962

>  <SuCOS_Cum_Protrude_Score>  (81) 
3.3813804693703111

$$$$
N#Cc1cccnc1C(=N)NO
     RDKit          3D

 12 12  0  0  0  0  0  0  0  0999 V2000
    9.1677    1.4503   21.2162 N   0  0  0  0  0  0  0  0  0  0  0  0
   10.2127    1.0768   21.5537 C   0  0  0  0  0  0  0  0  0  0  0  0
   11.4727    0.5728   21.9912 C   0  0  0  0  0  0  0  0  0  0  0  0
   11.8524   -0.7175   21.6045 C   0  0  0  0  0  0  0  0  0  0  0  0
   13.1018   -1.2122   21.9717 C   0  0  0  0  0  0  0  0  0  0  0  0
   13.9405   -0.3937   22.7058 C   0  0  0  0  0  0  0  0  0  0  0  0
   13.6106    0.8566   23.1027 N   0  0  0  0  0  0  0  0  0  0  0  0
   12.3687    1.3129   22.7572 C   0  0  0  0  0  0  0  0  0  0  0  0
   12.0860    2.7066   23.2545 C   0  0  0  0  0  0  0  0  0  0  0  0
   10.9445    3.3254   23.1127 N   0  0  0  0  0  0  0  0  0  0  0  0
   13.1030    3.3662   23.9220 N   0  0  0  0  0  0  0  0  0  0  0  0
   12.6488    4.5029   24.6088 O   0  0  0  0  0  0  0  0  0  0  0  0
  1  2  3  0
  2  3  1  0
  3  4  2  0
  3  8  1  0
  4  5  1  0
  5  6  2  0
  6  7  1  0
  7  8  2  0
  8  9  1  0
  9 10  2  0
  9 11  1  0
 11 12  1  0
M  END
>  <CHROM.1>  (82) 
5.55713605,12.05831532,1.48262553,22.69805557,1.62443150,0.41572302,-2.69052102

>  <Name>  (82) 
N#Cc1cccnc1C(=N)NO

>  <RI>  (82) 
0

>  <Rbt.Current_Directory>  (82) 
/home/gse84885/github/im/docking-validation/targets/mpro/expts/jackall/work/Mpro-x0072_0/work/df/3d7d3291a51b2de9eeb48a137824ec

>  <Rbt.Executable>  (82) 
rbdock ($Id: //depot/dev/client3/rdock/2013.1/src/exe/rbdock.cxx#4 $)

>  <Rbt.Library>  (82) 
libRbt.so (2013.1, Build901 2013/11/27)

>  <Rbt.Parameter_File>  (82) 
/rDock_2013.1/data/scripts/dock.prm

>  <Rbt.Receptor>  (82) 
docking-global.prm

>  <SCORE>  (82) 
-8.73195

>  <SCORE.INTER>  (82) 
-7.13006

>  <SCORE.INTER.CONST>  (82) 
1

>  <SCORE.INTER.POLAR>  (82) 
0

>  <SCORE.INTER.REPUL>  (82) 
0

>  <SCORE.INTER.ROT>  (82) 
1

>  <SCORE.INTER.VDW>  (82) 
-13.5301

>  <SCORE.INTER.norm>  (82) 
-0.594172

>  <SCORE.INTRA>  (82) 
-1.60189

>  <SCORE.INTRA.DIHEDRAL>  (82) 
-3.65024

>  <SCORE.INTRA.DIHEDRAL.0>  (82) 
3.72545

>  <SCORE.INTRA.POLAR>  (82) 
0

>  <SCORE.INTRA.POLAR.0>  (82) 
0

>  <SCORE.INTRA.REPUL>  (82) 
0

>  <SCORE.INTRA.REPUL.0>  (82) 
0

>  <SCORE.INTRA.VDW>  (82) 
0.223233

>  <SCORE.INTRA.VDW.0>  (82) 
-0.583184

>  <SCORE.INTRA.norm>  (82) 
-0.133491

>  <SCORE.RESTR>  (82) 
0

>  <SCORE.RESTR.CAVITY>  (82) 
0

>  <SCORE.RESTR.norm>  (82) 
0

>  <SCORE.SYSTEM>  (82) 
0

>  <SCORE.SYSTEM.CONST>  (82) 
0

>  <SCORE.SYSTEM.DIHEDRAL>  (82) 
0

>  <SCORE.SYSTEM.norm>  (82) 
0

>  <SCORE.heavy>  (82) 
12

>  <SCORE.norm>  (82) 
-0.727663

>  <XChemDeepScore>  (82) 
0.971456

>  <SuCOS_Max_Score>  (82) 
0.26865684297387332

>  <SuCOS_Max_FeatureMap_Score>  (82) 
0.08508570667313517

>  <SuCOS_Max_Protrude_Score>  (82) 
0.45222797927461145

>  <SuCOS_Max_Index>  (82) 
1

>  <SuCOS_Cum_Score>  (82) 
1.4210097537880544

>  <SuCOS_Cum_FeatureMap_Score>  (82) 
0.21363988037295945

>  <SuCOS_Cum_Protrude_Score>  (82) 
2.6283796272031497

$$$$
O=S(=O)(O)CCCCNOCc1ccccc1
     RDKit          3D

 17 17  0  0  0  0  0  0  0  0999 V2000
    7.9986   -0.8493   17.9698 O   0  0  0  0  0  0  0  0  0  0  0  0
    7.0445   -0.1634   18.8369 S   0  0  0  0  0  0  0  0  0  0  0  0
    7.1880    1.2915   18.8769 O   0  0  0  0  0  0  0  0  0  0  0  0
    5.6722   -0.6539   18.7559 O   0  0  0  0  0  0  0  0  0  0  0  0
    7.5678   -0.6691   20.4600 C   0  0  0  0  0  0  0  0  0  0  0  0
    9.0495   -0.4064   20.7261 C   0  0  0  0  0  0  0  0  0  0  0  0
    9.5045   -0.9429   22.0886 C   0  0  0  0  0  0  0  0  0  0  0  0
   10.9881   -0.6694   22.2940 C   0  0  0  0  0  0  0  0  0  0  0  0
   11.3042    0.7614   22.3166 N   0  0  0  0  0  0  0  0  0  0  0  0
   12.7463    0.8110   22.5879 O   0  0  0  0  0  0  0  0  0  0  0  0
   12.9961    1.6977   23.6879 C   0  0  0  0  0  0  0  0  0  0  0  0
   12.7589    3.1212   23.2694 C   0  0  0  0  0  0  0  0  0  0  0  0
   11.5724    3.7803   23.6246 C   0  0  0  0  0  0  0  0  0  0  0  0
   11.3901    5.1224   23.2990 C   0  0  0  0  0  0  0  0  0  0  0  0
   12.3941    5.8159   22.6249 C   0  0  0  0  0  0  0  0  0  0  0  0
   13.5811    5.1707   22.2778 C   0  0  0  0  0  0  0  0  0  0  0  0
   13.7648    3.8271   22.6019 C   0  0  0  0  0  0  0  0  0  0  0  0
  1  2  2  0
  2  3  2  0
  2  4  1  0
  2  5  1  0
  5  6  1  0
  6  7  1  0
  7  8  1  0
  8  9  1  0
  9 10  1  0
 10 11  1  0
 11 12  1  0
 12 13  2  0
 12 17  1  0
 13 14  1  0
 14 15  2  0
 15 16  1  0
 16 17  2  0
M  END
>  <CHROM.1>  (83) 
53.39814583,-175.74582052,179.33313564,62.59598981,177.27468545,-128.62660906
-70.91379533,101.57060234,10.08236988,1.35005276,21.25592296,2.66411387,0.66713207
3.02199859

>  <Name>  (83) 
O=S(=O)(O)CCCCNOCc1ccccc1

>  <RI>  (83) 
0

>  <Rbt.Current_Directory>  (83) 
/home/gse84885/github/im/docking-validation/targets/mpro/expts/jackall/work/Mpro-x0072_0/work/a4/3c12c1260b29bf3814ea5a18ca90bb

>  <Rbt.Executable>  (83) 
rbdock ($Id: //depot/dev/client3/rdock/2013.1/src/exe/rbdock.cxx#4 $)

>  <Rbt.Library>  (83) 
libRbt.so (2013.1, Build901 2013/11/27)

>  <Rbt.Parameter_File>  (83) 
/rDock_2013.1/data/scripts/dock.prm

>  <Rbt.Receptor>  (83) 
docking-global.prm

>  <SCORE>  (83) 
-6.70631

>  <SCORE.INTER>  (83) 
-4.63179

>  <SCORE.INTER.CONST>  (83) 
1

>  <SCORE.INTER.POLAR>  (83) 
0

>  <SCORE.INTER.REPUL>  (83) 
0.0188992

>  <SCORE.INTER.ROT>  (83) 
8

>  <SCORE.INTER.VDW>  (83) 
-18.1263

>  <SCORE.INTER.norm>  (83) 
-0.272458

>  <SCORE.INTRA>  (83) 
-2.07452

>  <SCORE.INTRA.DIHEDRAL>  (83) 
0.428775

>  <SCORE.INTRA.DIHEDRAL.0>  (83) 
1.37278

>  <SCORE.INTRA.POLAR>  (83) 
0

>  <SCORE.INTRA.POLAR.0>  (83) 
0

>  <SCORE.INTRA.REPUL>  (83) 
0

>  <SCORE.INTRA.REPUL.0>  (83) 
0

>  <SCORE.INTRA.VDW>  (83) 
-2.2889

>  <SCORE.INTRA.VDW.0>  (83) 
0.976527

>  <SCORE.INTRA.norm>  (83) 
-0.12203

>  <SCORE.RESTR>  (83) 
0

>  <SCORE.RESTR.CAVITY>  (83) 
0

>  <SCORE.RESTR.norm>  (83) 
0

>  <SCORE.SYSTEM>  (83) 
0

>  <SCORE.SYSTEM.CONST>  (83) 
0

>  <SCORE.SYSTEM.DIHEDRAL>  (83) 
0

>  <SCORE.SYSTEM.norm>  (83) 
0

>  <SCORE.heavy>  (83) 
17

>  <SCORE.norm>  (83) 
-0.394489

>  <XChemDeepScore>  (83) 
0.970941

>  <SuCOS_Max_Score>  (83) 
0.3051215983522812

>  <SuCOS_Max_FeatureMap_Score>  (83) 
0.10806251134630691

>  <SuCOS_Max_Protrude_Score>  (83) 
0.50218068535825544

>  <SuCOS_Max_Index>  (83) 
1

>  <SuCOS_Cum_Score>  (83) 
1.6511091671133729

>  <SuCOS_Cum_FeatureMap_Score>  (83) 
0.27929266647220485

>  <SuCOS_Cum_Protrude_Score>  (83) 
3.0229256677545404

$$$$
NS(=O)(=O)c1ccccc1O
     RDKit          3D

 11 11  0  0  0  0  0  0  0  0999 V2000
   12.8882    0.5323   24.8762 N   0  0  0  0  0  0  0  0  0  0  0  0
   13.1481    0.7394   23.2086 S   0  0  0  0  0  0  0  0  0  0  0  0
   13.1462    2.1704   22.9776 O   0  0  0  0  0  0  0  0  0  0  0  0
   14.3160   -0.0474   22.8583 O   0  0  0  0  0  0  0  0  0  0  0  0
   11.6689    0.0362   22.4674 C   0  0  0  0  0  0  0  0  0  0  0  0
   11.4292   -1.3245   22.7566 C   0  0  0  0  0  0  0  0  0  0  0  0
   10.3607   -1.9934   22.1739 C   0  0  0  0  0  0  0  0  0  0  0  0
    9.5143   -1.2931   21.3273 C   0  0  0  0  0  0  0  0  0  0  0  0
    9.7707    0.0559   21.0388 C   0  0  0  0  0  0  0  0  0  0  0  0
   10.8732    0.7770   21.5525 C   0  0  0  0  0  0  0  0  0  0  0  0
   11.1158    1.9721   21.1732 O   0  0  0  0  0  0  0  0  0  0  0  0
  1  2  1  0
  2  3  2  0
  2  4  2  0
  2  5  1  0
  5  6  2  0
  5 10  1  0
  6  7  1  0
  7  8  2  0
  8  9  1  0
  9 10  2  0
 10 11  1  0
M  END
>  <CHROM.1>  (84) 
-59.59488405,11.89908012,0.27707432,22.50691992,-0.19963826,0.61586937,2.77802230

>  <Name>  (84) 
NS(=O)(=O)c1ccccc1O

>  <RI>  (84) 
0

>  <Rbt.Current_Directory>  (84) 
/home/gse84885/github/im/docking-validation/targets/mpro/expts/jackall/work/Mpro-x0072_0/work/88/1beab53fdadde53b70d6a9b4fc7f66

>  <Rbt.Executable>  (84) 
rbdock ($Id: //depot/dev/client3/rdock/2013.1/src/exe/rbdock.cxx#4 $)

>  <Rbt.Library>  (84) 
libRbt.so (2013.1, Build901 2013/11/27)

>  <Rbt.Parameter_File>  (84) 
/rDock_2013.1/data/scripts/dock.prm

>  <Rbt.Receptor>  (84) 
docking-global.prm

>  <SCORE>  (84) 
-7.58489

>  <SCORE.INTER>  (84) 
-7.52808

>  <SCORE.INTER.CONST>  (84) 
1

>  <SCORE.INTER.POLAR>  (84) 
0

>  <SCORE.INTER.REPUL>  (84) 
0

>  <SCORE.INTER.ROT>  (84) 
1

>  <SCORE.INTER.VDW>  (84) 
-13.9281

>  <SCORE.INTER.norm>  (84) 
-0.684371

>  <SCORE.INTRA>  (84) 
-0.056808

>  <SCORE.INTRA.DIHEDRAL>  (84) 
-0.146384

>  <SCORE.INTRA.DIHEDRAL.0>  (84) 
1.31182

>  <SCORE.INTRA.POLAR>  (84) 
0

>  <SCORE.INTRA.POLAR.0>  (84) 
0

>  <SCORE.INTRA.REPUL>  (84) 
0

>  <SCORE.INTRA.REPUL.0>  (84) 
0

>  <SCORE.INTRA.VDW>  (84) 
0.016384

>  <SCORE.INTRA.VDW.0>  (84) 
-0.696648

>  <SCORE.INTRA.norm>  (84) 
-0.00516436

>  <SCORE.RESTR>  (84) 
0

>  <SCORE.RESTR.CAVITY>  (84) 
0

>  <SCORE.RESTR.norm>  (84) 
0

>  <SCORE.SYSTEM>  (84) 
0

>  <SCORE.SYSTEM.CONST>  (84) 
0

>  <SCORE.SYSTEM.DIHEDRAL>  (84) 
0

>  <SCORE.SYSTEM.norm>  (84) 
0

>  <SCORE.heavy>  (84) 
11

>  <SCORE.norm>  (84) 
-0.689536

>  <XChemDeepScore>  (84) 
0.970385

>  <SuCOS_Max_Score>  (84) 
0.22799498424419135

>  <SuCOS_Max_FeatureMap_Score>  (84) 
0.054042819670580222

>  <SuCOS_Max_Protrude_Score>  (84) 
0.40194714881780247

>  <SuCOS_Max_Index>  (84) 
2

>  <SuCOS_Cum_Score>  (84) 
1.4367711446497946

>  <SuCOS_Cum_FeatureMap_Score>  (84) 
0.2171975292818471

>  <SuCOS_Cum_Protrude_Score>  (84) 
2.6563447600177428

$$$$
O=C(NC[PH](=O)O)OCc1ccccc1
     RDKit          3D

 15 15  0  0  0  0  0  0  0  0999 V2000
    9.5543    2.7367   21.9266 O   0  0  0  0  0  0  0  0  0  0  0  0
    9.8923    1.6230   21.5741 C   0  0  0  0  0  0  0  0  0  0  0  0
   11.1560    1.0888   21.7901 N   0  0  0  0  0  0  0  0  0  0  0  0
   11.2949   -0.1767   22.5325 C   0  0  0  0  0  0  0  0  0  0  0  0
   12.7106   -1.1486   21.9001 P   0  0  0  0  0  0  0  0  0  0  0  0
   12.1561   -2.4327   22.5333 O   0  0  0  0  0  0  0  0  0  0  0  0
   14.0490   -2.0674   21.3023 O   0  0  0  0  0  0  0  0  0  0  0  0
    9.1272    0.7139   20.9108 O   0  0  0  0  0  0  0  0  0  0  0  0
    7.7697    1.0652   20.5960 C   0  0  0  0  0  0  0  0  0  0  0  0
    6.9917   -0.0195   19.8882 C   0  0  0  0  0  0  0  0  0  0  0  0
    6.3399   -1.0422   20.6055 C   0  0  0  0  0  0  0  0  0  0  0  0
    5.6080   -2.0287   19.9368 C   0  0  0  0  0  0  0  0  0  0  0  0
    5.5159   -2.0166   18.5448 C   0  0  0  0  0  0  0  0  0  0  0  0
    6.1395   -0.9986   17.8235 C   0  0  0  0  0  0  0  0  0  0  0  0
    6.8686   -0.0077   18.4912 C   0  0  0  0  0  0  0  0  0  0  0  0
  1  2  2  0
  2  3  1  0
  2  8  1  0
  3  4  1  0
  4  5  1  0
  5  6  2  0
  5  7  1  0
  8  9  1  0
  9 10  1  0
 10 11  2  0
 10 15  1  0
 11 12  1  0
 12 13  2  0
 13 14  1  0
 14 15  2  0
M  END
>  <CHROM.1>  (85) 
-1.00537350,146.67463186,-161.03951448,-178.65121545,85.02878527,9.44088258
-0.37466222,20.85022134,0.08682613,-0.40336170,0.28242534

>  <Name>  (85) 
O=C(NC[PH](=O)O)OCc1ccccc1

>  <RI>  (85) 
0

>  <Rbt.Current_Directory>  (85) 
/home/gse84885/github/im/docking-validation/targets/mpro/expts/jackall/work/Mpro-x0072_0/work/23/9c1ed07f8c46b9630f17e24e8810e6

>  <Rbt.Executable>  (85) 
rbdock ($Id: //depot/dev/client3/rdock/2013.1/src/exe/rbdock.cxx#4 $)

>  <Rbt.Library>  (85) 
libRbt.so (2013.1, Build901 2013/11/27)

>  <Rbt.Parameter_File>  (85) 
/rDock_2013.1/data/scripts/dock.prm

>  <Rbt.Receptor>  (85) 
docking-global.prm

>  <SCORE>  (85) 
-12.5081

>  <SCORE.INTER>  (85) 
-9.29201

>  <SCORE.INTER.CONST>  (85) 
1

>  <SCORE.INTER.POLAR>  (85) 
0

>  <SCORE.INTER.REPUL>  (85) 
0

>  <SCORE.INTER.ROT>  (85) 
5

>  <SCORE.INTER.VDW>  (85) 
-19.692

>  <SCORE.INTER.norm>  (85) 
-0.619468

>  <SCORE.INTRA>  (85) 
-3.21607

>  <SCORE.INTRA.DIHEDRAL>  (85) 
-7.1263

>  <SCORE.INTRA.DIHEDRAL.0>  (85) 
11.3153

>  <SCORE.INTRA.POLAR>  (85) 
0

>  <SCORE.INTRA.POLAR.0>  (85) 
0

>  <SCORE.INTRA.REPUL>  (85) 
0

>  <SCORE.INTRA.REPUL.0>  (85) 
0

>  <SCORE.INTRA.VDW>  (85) 
0.347075

>  <SCORE.INTRA.VDW.0>  (85) 
-0.845013

>  <SCORE.INTRA.norm>  (85) 
-0.214405

>  <SCORE.RESTR>  (85) 
0

>  <SCORE.RESTR.CAVITY>  (85) 
0

>  <SCORE.RESTR.norm>  (85) 
0

>  <SCORE.SYSTEM>  (85) 
0

>  <SCORE.SYSTEM.CONST>  (85) 
0

>  <SCORE.SYSTEM.DIHEDRAL>  (85) 
0

>  <SCORE.SYSTEM.norm>  (85) 
0

>  <SCORE.heavy>  (85) 
15

>  <SCORE.norm>  (85) 
-0.833873

>  <XChemDeepScore>  (85) 
0.969838

>  <SuCOS_Max_Score>  (85) 
0.34009802203798867

>  <SuCOS_Max_FeatureMap_Score>  (85) 
0.14394378458611998

>  <SuCOS_Max_Protrude_Score>  (85) 
0.53625225948985733

>  <SuCOS_Max_Index>  (85) 
6

>  <SuCOS_Cum_Score>  (85) 
1.4377810238704005

>  <SuCOS_Cum_FeatureMap_Score>  (85) 
0.43489890301110179

>  <SuCOS_Cum_Protrude_Score>  (85) 
2.4406631447296996

$$$$
COC(=O)C(N)C(C)(C)c1ccc(S(N)(=O)=O)cc1
     RDKit          3D

 19 19  0  0  0  0  0  0  0  0999 V2000
    8.9432   -0.4223   27.0055 C   0  0  0  0  0  0  0  0  0  0  0  0
    9.8506   -1.1118   26.1460 O   0  0  0  0  0  0  0  0  0  0  0  0
    9.9765   -0.5774   24.8953 C   0  0  0  0  0  0  0  0  0  0  0  0
    9.3516    0.3935   24.4895 O   0  0  0  0  0  0  0  0  0  0  0  0
   11.0062   -1.3639   24.0523 C   0  0  1  0  0  0  0  0  0  0  0  0
   10.6210   -2.8052   23.9687 N   0  0  0  0  0  0  0  0  0  0  0  0
   11.3231   -0.7275   22.6430 C   0  0  0  0  0  0  0  0  0  0  0  0
   12.4483   -1.5310   21.9437 C   0  0  0  0  0  0  0  0  0  0  0  0
   10.0561   -0.9313   21.7582 C   0  0  0  0  0  0  0  0  0  0  0  0
   11.7397    0.7620   22.7119 C   0  0  0  0  0  0  0  0  0  0  0  0
   11.4887    1.6374   21.6342 C   0  0  0  0  0  0  0  0  0  0  0  0
   11.9144    2.9691   21.6533 C   0  0  0  0  0  0  0  0  0  0  0  0
   12.5552    3.4668   22.7822 C   0  0  0  0  0  0  0  0  0  0  0  0
   13.1137    5.1863   22.7817 S   0  0  0  0  0  0  0  0  0  0  0  0
   12.4005    5.8748   24.0220 N   0  0  0  0  0  0  0  0  0  0  0  0
   14.5613    5.0679   22.9271 O   0  0  0  0  0  0  0  0  0  0  0  0
   12.6590    5.6508   21.4744 O   0  0  0  0  0  0  0  0  0  0  0  0
   12.7715    2.6538   23.8868 C   0  0  0  0  0  0  0  0  0  0  0  0
   12.3697    1.3146   23.8460 C   0  0  0  0  0  0  0  0  0  0  0  0
  1  2  1  0
  2  3  1  0
  3  4  2  0
  3  5  1  0
  5  6  1  6
  5  7  1  0
  7  8  1  0
  7  9  1  0
  7 10  1  0
 10 11  2  0
 10 19  1  0
 11 12  1  0
 12 13  2  0
 13 14  1  0
 13 18  1  0
 14 15  1  0
 14 16  2  0
 14 17  2  0
 18 19  2  0
M  END
>  <CHROM.1>  (86) 
-1.97054657,56.95302948,175.26862269,-151.43125903,122.33023436,11.62302158
1.61132676,23.38428884,2.50216388,-1.04267948,-2.55807996

>  <Name>  (86) 
COC(=O)C(N)C(C)(C)c1ccc(S(N)(=O)=O)cc1

>  <RI>  (86) 
0

>  <Rbt.Current_Directory>  (86) 
/home/gse84885/github/im/docking-validation/targets/mpro/expts/jackall/work/Mpro-x0072_0/work/60/92a408fda7e1d67ebdf2a5b4113914

>  <Rbt.Executable>  (86) 
rbdock ($Id: //depot/dev/client3/rdock/2013.1/src/exe/rbdock.cxx#4 $)

>  <Rbt.Library>  (86) 
libRbt.so (2013.1, Build901 2013/11/27)

>  <Rbt.Parameter_File>  (86) 
/rDock_2013.1/data/scripts/dock.prm

>  <Rbt.Receptor>  (86) 
docking-global.prm

>  <SCORE>  (86) 
-8.93176

>  <SCORE.INTER>  (86) 
-8.28973

>  <SCORE.INTER.CONST>  (86) 
1

>  <SCORE.INTER.POLAR>  (86) 
0

>  <SCORE.INTER.REPUL>  (86) 
0.136253

>  <SCORE.INTER.ROT>  (86) 
5

>  <SCORE.INTER.VDW>  (86) 
-19.371

>  <SCORE.INTER.norm>  (86) 
-0.436301

>  <SCORE.INTRA>  (86) 
-0.66636

>  <SCORE.INTRA.DIHEDRAL>  (86) 
-1.38513

>  <SCORE.INTRA.DIHEDRAL.0>  (86) 
4.48392

>  <SCORE.INTRA.POLAR>  (86) 
0

>  <SCORE.INTRA.POLAR.0>  (86) 
0

>  <SCORE.INTRA.REPUL>  (86) 
0

>  <SCORE.INTRA.REPUL.0>  (86) 
0

>  <SCORE.INTRA.VDW>  (86) 
0.0262031

>  <SCORE.INTRA.VDW.0>  (86) 
1.61638

>  <SCORE.INTRA.norm>  (86) 
-0.0350716

>  <SCORE.RESTR>  (86) 
0.0243268

>  <SCORE.RESTR.CAVITY>  (86) 
0.0243268

>  <SCORE.RESTR.norm>  (86) 
0.00128036

>  <SCORE.SYSTEM>  (86) 
0

>  <SCORE.SYSTEM.CONST>  (86) 
0

>  <SCORE.SYSTEM.DIHEDRAL>  (86) 
0

>  <SCORE.SYSTEM.norm>  (86) 
0

>  <SCORE.heavy>  (86) 
19

>  <SCORE.norm>  (86) 
-0.470093

>  <XChemDeepScore>  (86) 
0.969705

>  <SuCOS_Max_Score>  (86) 
0.46076465187157833

>  <SuCOS_Max_FeatureMap_Score>  (86) 
0.28830983320515507

>  <SuCOS_Max_Protrude_Score>  (86) 
0.63321947053800165

>  <SuCOS_Max_Index>  (86) 
3

>  <SuCOS_Cum_Score>  (86) 
2.3424169367759538

>  <SuCOS_Cum_FeatureMap_Score>  (86) 
0.8935722449537955

>  <SuCOS_Cum_Protrude_Score>  (86) 
3.7912616285981127

$$$$
NC(CCCOCc1ccccc1)CCc1cccnc1
     RDKit          3D

 21 22  0  0  0  0  0  0  0  0999 V2000
   13.8898    0.1007   23.5575 N   0  0  0  0  0  0  0  0  0  0  0  0
   12.8982    1.0032   22.8890 C   0  0  1  0  0  0  0  0  0  0  0  0
   11.5652    0.2460   22.8684 C   0  0  0  0  0  0  0  0  0  0  0  0
   11.6196   -1.0987   22.1300 C   0  0  0  0  0  0  0  0  0  0  0  0
   10.2481   -1.7689   22.0977 C   0  0  0  0  0  0  0  0  0  0  0  0
    9.4394   -1.0385   21.1824 O   0  0  0  0  0  0  0  0  0  0  0  0
    8.0724   -1.4465   21.2300 C   0  0  0  0  0  0  0  0  0  0  0  0
    7.3583   -0.8355   20.0553 C   0  0  0  0  0  0  0  0  0  0  0  0
    7.9986    0.1250   19.2573 C   0  0  0  0  0  0  0  0  0  0  0  0
    7.3477    0.6812   18.1559 C   0  0  0  0  0  0  0  0  0  0  0  0
    6.0515    0.2829   17.8385 C   0  0  0  0  0  0  0  0  0  0  0  0
    5.4037   -0.6702   18.6235 C   0  0  0  0  0  0  0  0  0  0  0  0
    6.0529   -1.2276   19.7265 C   0  0  0  0  0  0  0  0  0  0  0  0
   12.8246    2.3297   23.6518 C   0  0  0  0  0  0  0  0  0  0  0  0
   12.1096    3.4478   22.8860 C   0  0  0  0  0  0  0  0  0  0  0  0
   11.8747    4.6294   23.7787 C   0  0  0  0  0  0  0  0  0  0  0  0
   12.9349    5.2764   24.4197 C   0  0  0  0  0  0  0  0  0  0  0  0
   12.6785    6.4002   25.1960 C   0  0  0  0  0  0  0  0  0  0  0  0
   11.3714    6.8447   25.3043 C   0  0  0  0  0  0  0  0  0  0  0  0
   10.3266    6.2463   24.6958 N   0  0  0  0  0  0  0  0  0  0  0  0
   10.5992    5.1560   23.9515 C   0  0  0  0  0  0  0  0  0  0  0  0
  2  1  1  1
  2  3  1  0
  2 14  1  0
  3  4  1  0
  4  5  1  0
  5  6  1  0
  6  7  1  0
  7  8  1  0
  8  9  2  0
  8 13  1  0
  9 10  1  0
 10 11  2  0
 11 12  1  0
 12 13  2  0
 14 15  1  0
 15 16  1  0
 16 17  2  0
 16 21  1  0
 17 18  1  0
 18 19  2  0
 19 20  1  0
 20 21  2  0
M  END
>  <CHROM.1>  (87) 
-58.87211313,166.05412795,-177.61073440,72.40898813,-170.70672678,-168.62311410
-9.03055302,170.42661320,57.73503222,10.15740931,1.60282823,22.08602109,-0.87259169
0.55283398,-2.84209023

>  <Name>  (87) 
NC(CCCOCc1ccccc1)CCc1cccnc1

>  <RI>  (87) 
0

>  <Rbt.Current_Directory>  (87) 
/home/gse84885/github/im/docking-validation/targets/mpro/expts/jackall/work/Mpro-x0072_0/work/48/6abf487a037d8796156767a3f908e6

>  <Rbt.Executable>  (87) 
rbdock ($Id: //depot/dev/client3/rdock/2013.1/src/exe/rbdock.cxx#4 $)

>  <Rbt.Library>  (87) 
libRbt.so (2013.1, Build901 2013/11/27)

>  <Rbt.Parameter_File>  (87) 
/rDock_2013.1/data/scripts/dock.prm

>  <Rbt.Receptor>  (87) 
docking-global.prm

>  <SCORE>  (87) 
-8.91178

>  <SCORE.INTER>  (87) 
-10.7904

>  <SCORE.INTER.CONST>  (87) 
1

>  <SCORE.INTER.POLAR>  (87) 
0

>  <SCORE.INTER.REPUL>  (87) 
0

>  <SCORE.INTER.ROT>  (87) 
9

>  <SCORE.INTER.VDW>  (87) 
-25.1904

>  <SCORE.INTER.norm>  (87) 
-0.513829

>  <SCORE.INTRA>  (87) 
1.87863

>  <SCORE.INTRA.DIHEDRAL>  (87) 
2.60876

>  <SCORE.INTRA.DIHEDRAL.0>  (87) 
1.56567

>  <SCORE.INTRA.POLAR>  (87) 
0

>  <SCORE.INTRA.POLAR.0>  (87) 
0

>  <SCORE.INTRA.REPUL>  (87) 
0

>  <SCORE.INTRA.REPUL.0>  (87) 
0

>  <SCORE.INTRA.VDW>  (87) 
0.574251

>  <SCORE.INTRA.VDW.0>  (87) 
-0.815152

>  <SCORE.INTRA.norm>  (87) 
0.0894585

>  <SCORE.RESTR>  (87) 
0

>  <SCORE.RESTR.CAVITY>  (87) 
0

>  <SCORE.RESTR.norm>  (87) 
0

>  <SCORE.SYSTEM>  (87) 
0

>  <SCORE.SYSTEM.CONST>  (87) 
0

>  <SCORE.SYSTEM.DIHEDRAL>  (87) 
0

>  <SCORE.SYSTEM.norm>  (87) 
0

>  <SCORE.heavy>  (87) 
21

>  <SCORE.norm>  (87) 
-0.424371

>  <XChemDeepScore>  (87) 
0.969676

>  <SuCOS_Max_Score>  (87) 
0.43492868078898095

>  <SuCOS_Max_FeatureMap_Score>  (87) 
0.27579795563736786

>  <SuCOS_Max_Protrude_Score>  (87) 
0.59405940594059403

>  <SuCOS_Max_Index>  (87) 
1

>  <SuCOS_Cum_Score>  (87) 
2.3275579748623043

>  <SuCOS_Cum_FeatureMap_Score>  (87) 
0.89575685773192626

>  <SuCOS_Cum_Protrude_Score>  (87) 
3.7593590919926818

$$$$
NC(CCCOCc1ccccc1)CCc1ccncc1
     RDKit          3D

 21 22  0  0  0  0  0  0  0  0999 V2000
   13.9503    0.0120   23.4406 N   0  0  0  0  0  0  0  0  0  0  0  0
   12.9281    0.8524   22.8208 C   0  0  1  0  0  0  0  0  0  0  0  0
   11.5593    0.1571   22.7922 C   0  0  0  0  0  0  0  0  0  0  0  0
   11.5739   -1.1981   22.0924 C   0  0  0  0  0  0  0  0  0  0  0  0
   10.1724   -1.7827   22.0551 C   0  0  0  0  0  0  0  0  0  0  0  0
    9.4097   -1.0290   21.1250 O   0  0  0  0  0  0  0  0  0  0  0  0
    8.0473   -1.4462   21.1307 C   0  0  0  0  0  0  0  0  0  0  0  0
    7.3026   -0.8410   19.9728 C   0  0  0  0  0  0  0  0  0  0  0  0
    7.9399    0.1276   19.1862 C   0  0  0  0  0  0  0  0  0  0  0  0
    7.2827    0.7026   18.1035 C   0  0  0  0  0  0  0  0  0  0  0  0
    5.9860    0.3051   17.7799 C   0  0  0  0  0  0  0  0  0  0  0  0
    5.3513   -0.6725   18.5411 C   0  0  0  0  0  0  0  0  0  0  0  0
    6.0073   -1.2521   19.6292 C   0  0  0  0  0  0  0  0  0  0  0  0
   12.8304    2.1619   23.6193 C   0  0  0  0  0  0  0  0  0  0  0  0
   12.1192    3.2709   22.8394 C   0  0  0  0  0  0  0  0  0  0  0  0
   11.9269    4.5073   23.6828 C   0  0  0  0  0  0  0  0  0  0  0  0
   10.6554    5.0628   23.8523 C   0  0  0  0  0  0  0  0  0  0  0  0
   10.5055    6.1781   24.6664 C   0  0  0  0  0  0  0  0  0  0  0  0
   11.5765    6.7117   25.2737 N   0  0  0  0  0  0  0  0  0  0  0  0
   12.8157    6.2204   25.1121 C   0  0  0  0  0  0  0  0  0  0  0  0
   13.0210    5.1117   24.3044 C   0  0  0  0  0  0  0  0  0  0  0  0
  2  1  1  1
  2  3  1  0
  2 14  1  0
  3  4  1  0
  4  5  1  0
  5  6  1  0
  6  7  1  0
  7  8  1  0
  8  9  2  0
  8 13  1  0
  9 10  1  0
 10 11  2  0
 11 12  1  0
 12 13  2  0
 14 15  1  0
 15 16  1  0
 16 17  2  0
 16 21  1  0
 17 18  1  0
 18 19  2  0
 19 20  1  0
 20 21  2  0
M  END
>  <CHROM.1>  (88) 
-56.24746901,162.68662974,-177.42815132,71.58699242,-174.62776332,-169.11778784
-7.80889058,175.02666980,-125.19741650,10.17488514,1.53251404,22.01842932
-0.83990611,0.55657776,-2.85328420

>  <Name>  (88) 
NC(CCCOCc1ccccc1)CCc1ccncc1

>  <RI>  (88) 
0

>  <Rbt.Current_Directory>  (88) 
/home/gse84885/github/im/docking-validation/targets/mpro/expts/jackall/work/Mpro-x0072_0/work/02/8551378c8ae56971d85b652a28554d

>  <Rbt.Executable>  (88) 
rbdock ($Id: //depot/dev/client3/rdock/2013.1/src/exe/rbdock.cxx#4 $)

>  <Rbt.Library>  (88) 
libRbt.so (2013.1, Build901 2013/11/27)

>  <Rbt.Parameter_File>  (88) 
/rDock_2013.1/data/scripts/dock.prm

>  <Rbt.Receptor>  (88) 
docking-global.prm

>  <SCORE>  (88) 
-8.71784

>  <SCORE.INTER>  (88) 
-10.9219

>  <SCORE.INTER.CONST>  (88) 
1

>  <SCORE.INTER.POLAR>  (88) 
0

>  <SCORE.INTER.REPUL>  (88) 
0

>  <SCORE.INTER.ROT>  (88) 
9

>  <SCORE.INTER.VDW>  (88) 
-25.3219

>  <SCORE.INTER.norm>  (88) 
-0.520092

>  <SCORE.INTRA>  (88) 
2.20409

>  <SCORE.INTRA.DIHEDRAL>  (88) 
2.40883

>  <SCORE.INTRA.DIHEDRAL.0>  (88) 
1.51144

>  <SCORE.INTRA.POLAR>  (88) 
0

>  <SCORE.INTRA.POLAR.0>  (88) 
0

>  <SCORE.INTRA.REPUL>  (88) 
0

>  <SCORE.INTRA.REPUL.0>  (88) 
0

>  <SCORE.INTRA.VDW>  (88) 
0.999673

>  <SCORE.INTRA.VDW.0>  (88) 
-1.18663

>  <SCORE.INTRA.norm>  (88) 
0.104957

>  <SCORE.RESTR>  (88) 
0

>  <SCORE.RESTR.CAVITY>  (88) 
0

>  <SCORE.RESTR.norm>  (88) 
0

>  <SCORE.SYSTEM>  (88) 
0

>  <SCORE.SYSTEM.CONST>  (88) 
0

>  <SCORE.SYSTEM.DIHEDRAL>  (88) 
0

>  <SCORE.SYSTEM.norm>  (88) 
0

>  <SCORE.heavy>  (88) 
21

>  <SCORE.norm>  (88) 
-0.415135

>  <XChemDeepScore>  (88) 
0.969507

>  <SuCOS_Max_Score>  (88) 
0.40224136970058433

>  <SuCOS_Max_FeatureMap_Score>  (88) 
0.20477205537554352

>  <SuCOS_Max_Protrude_Score>  (88) 
0.59971068402562511

>  <SuCOS_Max_Index>  (88) 
1

>  <SuCOS_Cum_Score>  (88) 
2.2846292610688597

>  <SuCOS_Cum_FeatureMap_Score>  (88) 
0.79268909206534344

>  <SuCOS_Cum_Protrude_Score>  (88) 
3.7765694300723758

$$$$
CC(C)(CNC(N)=NCc1ccccc1)c1ccncc1
     RDKit          3D

 21 22  0  0  0  0  0  0  0  0999 V2000
    7.9848   -2.2466   23.3727 C   0  0  0  0  0  0  0  0  0  0  0  0
    9.3912   -2.1842   24.0049 C   0  0  0  0  0  0  0  0  0  0  0  0
   10.4611   -2.3143   22.8965 C   0  0  0  0  0  0  0  0  0  0  0  0
    9.5831   -0.7948   24.6870 C   0  0  0  0  0  0  0  0  0  0  0  0
   10.8830   -0.5888   25.3578 N   0  0  0  0  0  0  0  0  0  0  0  0
   11.8559    0.2453   24.9077 C   0  0  0  0  0  0  0  0  0  0  0  0
   12.9939    0.3279   25.6135 N   0  0  0  0  0  0  0  0  0  0  0  0
   11.6758    0.9707   23.7898 N   0  0  0  0  0  0  0  0  0  0  0  0
   12.6568    1.8574   23.1696 C   0  0  0  0  0  0  0  0  0  0  0  0
   12.3343    3.3055   23.4007 C   0  0  0  0  0  0  0  0  0  0  0  0
   13.2496    4.2552   23.8829 C   0  0  0  0  0  0  0  0  0  0  0  0
   12.8481    5.5761   24.1161 C   0  0  0  0  0  0  0  0  0  0  0  0
   11.5312    5.9597   23.8762 C   0  0  0  0  0  0  0  0  0  0  0  0
   10.6163    5.0322   23.3901 C   0  0  0  0  0  0  0  0  0  0  0  0
   11.0175    3.7177   23.1533 C   0  0  0  0  0  0  0  0  0  0  0  0
    9.5339   -3.3566   25.0132 C   0  0  0  0  0  0  0  0  0  0  0  0
    8.9808   -3.2498   26.3031 C   0  0  0  0  0  0  0  0  0  0  0  0
    9.1388   -4.2725   27.2390 C   0  0  0  0  0  0  0  0  0  0  0  0
    9.8231   -5.3769   26.9081 N   0  0  0  0  0  0  0  0  0  0  0  0
   10.3596   -5.5457   25.6932 C   0  0  0  0  0  0  0  0  0  0  0  0
   10.2274   -4.5458   24.7274 C   0  0  0  0  0  0  0  0  0  0  0  0
  1  2  1  0
  2  3  1  0
  2  4  1  0
  2 16  1  0
  4  5  1  0
  5  6  1  0
  6  7  1  0
  6  8  2  0
  8  9  1  0
  9 10  1  0
 10 11  2  0
 10 15  1  0
 11 12  1  0
 12 13  2  0
 13 14  1  0
 14 15  2  0
 16 17  2  0
 16 21  1  0
 17 18  1  0
 18 19  2  0
 19 20  1  0
 20 21  2  0
M  END
>  <CHROM.1>  (89) 
179.17535522,-80.19048957,109.33950516,-105.43753305,129.86724086,10.80368392
-0.18884727,24.53831132,1.91179842,0.59836420,2.72655566

>  <Name>  (89) 
CC(C)(CNC(N)=NCc1ccccc1)c1ccncc1

>  <RI>  (89) 
0

>  <Rbt.Current_Directory>  (89) 
/home/gse84885/github/im/docking-validation/targets/mpro/expts/jackall/work/Mpro-x0072_0/work/d7/8976a05c8b662dc9a38437b276772f

>  <Rbt.Executable>  (89) 
rbdock ($Id: //depot/dev/client3/rdock/2013.1/src/exe/rbdock.cxx#4 $)

>  <Rbt.Library>  (89) 
libRbt.so (2013.1, Build901 2013/11/27)

>  <Rbt.Parameter_File>  (89) 
/rDock_2013.1/data/scripts/dock.prm

>  <Rbt.Receptor>  (89) 
docking-global.prm

>  <SCORE>  (89) 
-12.7879

>  <SCORE.INTER>  (89) 
-11.5247

>  <SCORE.INTER.CONST>  (89) 
1

>  <SCORE.INTER.POLAR>  (89) 
0

>  <SCORE.INTER.REPUL>  (89) 
0.0018782

>  <SCORE.INTER.ROT>  (89) 
5

>  <SCORE.INTER.VDW>  (89) 
-21.9341

>  <SCORE.INTER.norm>  (89) 
-0.548798

>  <SCORE.INTRA>  (89) 
-1.26314

>  <SCORE.INTRA.DIHEDRAL>  (89) 
-1.92533

>  <SCORE.INTRA.DIHEDRAL.0>  (89) 
3.84211

>  <SCORE.INTRA.POLAR>  (89) 
0

>  <SCORE.INTRA.POLAR.0>  (89) 
0

>  <SCORE.INTRA.REPUL>  (89) 
0

>  <SCORE.INTRA.REPUL.0>  (89) 
0

>  <SCORE.INTRA.VDW>  (89) 
-0.300473

>  <SCORE.INTRA.VDW.0>  (89) 
0.595811

>  <SCORE.INTRA.norm>  (89) 
-0.0601494

>  <SCORE.RESTR>  (89) 
0

>  <SCORE.RESTR.CAVITY>  (89) 
0

>  <SCORE.RESTR.norm>  (89) 
0

>  <SCORE.SYSTEM>  (89) 
0

>  <SCORE.SYSTEM.CONST>  (89) 
0

>  <SCORE.SYSTEM.DIHEDRAL>  (89) 
0

>  <SCORE.SYSTEM.norm>  (89) 
0

>  <SCORE.heavy>  (89) 
21

>  <SCORE.norm>  (89) 
-0.608947

>  <XChemDeepScore>  (89) 
0.969259

>  <SuCOS_Max_Score>  (89) 
0.37654817558329812

>  <SuCOS_Max_FeatureMap_Score>  (89) 
0.061691935948183736

>  <SuCOS_Max_Protrude_Score>  (89) 
0.69140441521841245

>  <SuCOS_Max_Index>  (89) 
0

>  <SuCOS_Cum_Score>  (89) 
1.8946164527078617

>  <SuCOS_Cum_FeatureMap_Score>  (89) 
0.30562597231249555

>  <SuCOS_Cum_Protrude_Score>  (89) 
3.4836069331032276

$$$$
CCNc1cc(C(=O)NO)ccn1
     RDKit          3D

 13 13  0  0  0  0  0  0  0  0999 V2000
   13.7768    5.6342   22.0885 C   0  0  0  0  0  0  0  0  0  0  0  0
   13.6878    4.6217   23.2106 C   0  0  0  0  0  0  0  0  0  0  0  0
   12.3621    3.9301   23.1711 N   0  0  0  0  0  0  0  0  0  0  0  0
   12.4122    2.4838   22.9183 C   0  0  0  0  0  0  0  0  0  0  0  0
   11.3126    1.8929   22.2895 C   0  0  0  0  0  0  0  0  0  0  0  0
   11.3175    0.5105   22.0377 C   0  0  0  0  0  0  0  0  0  0  0  0
   10.1534   -0.0800   21.3329 C   0  0  0  0  0  0  0  0  0  0  0  0
   10.1226   -1.2968   21.1916 O   0  0  0  0  0  0  0  0  0  0  0  0
    9.1949    0.7792   20.8652 N   0  0  0  0  0  0  0  0  0  0  0  0
    8.1214    0.2032   20.1580 O   0  0  0  0  0  0  0  0  0  0  0  0
   12.4255   -0.2520   22.3933 C   0  0  0  0  0  0  0  0  0  0  0  0
   13.4846    0.3727   23.0330 C   0  0  0  0  0  0  0  0  0  0  0  0
   13.4437    1.6936   23.2885 N   0  0  0  0  0  0  0  0  0  0  0  0
  1  2  1  0
  2  3  1  0
  3  4  1  0
  4  5  2  0
  4 13  1  0
  5  6  1  0
  6  7  1  0
  6 11  2  0
  7  8  2  0
  7  9  1  0
  9 10  1  0
 11 12  1  0
 12 13  2  0
M  END
>  <CHROM.1>  (90) 
116.75652970,-151.84161997,-175.41865622,11.63401584,1.58803868,22.11377543
0.75995478,-0.51280033,-0.06373207

>  <Name>  (90) 
CCNc1cc(C(=O)NO)ccn1

>  <RI>  (90) 
0

>  <Rbt.Current_Directory>  (90) 
/home/gse84885/github/im/docking-validation/targets/mpro/expts/jackall/work/Mpro-x0072_0/work/5d/192c4b203148952ce8c5c97b78e838

>  <Rbt.Executable>  (90) 
rbdock ($Id: //depot/dev/client3/rdock/2013.1/src/exe/rbdock.cxx#4 $)

>  <Rbt.Library>  (90) 
libRbt.so (2013.1, Build901 2013/11/27)

>  <Rbt.Parameter_File>  (90) 
/rDock_2013.1/data/scripts/dock.prm

>  <Rbt.Receptor>  (90) 
docking-global.prm

>  <SCORE>  (90) 
-9.18078

>  <SCORE.INTER>  (90) 
-7.02833

>  <SCORE.INTER.CONST>  (90) 
1

>  <SCORE.INTER.POLAR>  (90) 
0

>  <SCORE.INTER.REPUL>  (90) 
0

>  <SCORE.INTER.ROT>  (90) 
3

>  <SCORE.INTER.VDW>  (90) 
-15.4283

>  <SCORE.INTER.norm>  (90) 
-0.54064

>  <SCORE.INTRA>  (90) 
-2.15245

>  <SCORE.INTRA.DIHEDRAL>  (90) 
-4.48996

>  <SCORE.INTRA.DIHEDRAL.0>  (90) 
6.19222

>  <SCORE.INTRA.POLAR>  (90) 
0

>  <SCORE.INTRA.POLAR.0>  (90) 
0

>  <SCORE.INTRA.REPUL>  (90) 
0

>  <SCORE.INTRA.REPUL.0>  (90) 
0

>  <SCORE.INTRA.VDW>  (90) 
0.0925286

>  <SCORE.INTRA.VDW.0>  (90) 
-0.239292

>  <SCORE.INTRA.norm>  (90) 
-0.165573

>  <SCORE.RESTR>  (90) 
0

>  <SCORE.RESTR.CAVITY>  (90) 
0

>  <SCORE.RESTR.norm>  (90) 
0

>  <SCORE.SYSTEM>  (90) 
0

>  <SCORE.SYSTEM.CONST>  (90) 
0

>  <SCORE.SYSTEM.DIHEDRAL>  (90) 
0

>  <SCORE.SYSTEM.norm>  (90) 
0

>  <SCORE.heavy>  (90) 
13

>  <SCORE.norm>  (90) 
-0.706213

>  <XChemDeepScore>  (90) 
0.969099

>  <SuCOS_Max_Score>  (90) 
0.22780702127328345

>  <SuCOS_Max_FeatureMap_Score>  (90) 
0.039310371109105839

>  <SuCOS_Max_Protrude_Score>  (90) 
0.41630367143746105

>  <SuCOS_Max_Index>  (90) 
1

>  <SuCOS_Cum_Score>  (90) 
1.3508794777166511

>  <SuCOS_Cum_FeatureMap_Score>  (90) 
0.21771920056771915

>  <SuCOS_Cum_Protrude_Score>  (90) 
2.484039754865583

$$$$
COCC(C)(N)CC(C)COCc1ccccc1
     RDKit          3D

 18 18  0  0  0  0  0  0  0  0999 V2000
   13.0656    3.9722   23.5691 C   0  0  0  0  0  0  0  0  0  0  0  0
   12.9128    2.5583   23.7213 O   0  0  0  0  0  0  0  0  0  0  0  0
   11.6938    2.0852   23.1521 C   0  0  0  0  0  0  0  0  0  0  0  0
   11.6191    0.5457   23.3170 C   0  0  1  0  0  0  0  0  0  0  0  0
   12.7640   -0.0863   22.5051 C   0  0  0  0  0  0  0  0  0  0  0  0
   11.8659    0.2161   24.7597 N   0  0  0  0  0  0  0  0  0  0  0  0
   10.2651   -0.0866   22.8774 C   0  0  0  0  0  0  0  0  0  0  0  0
   10.0829   -1.6283   22.7398 C   0  0  1  0  0  0  0  0  0  0  0  0
   10.3938   -2.4509   23.9859 C   0  0  0  0  0  0  0  0  0  0  0  0
    8.6276   -1.9566   22.3590 C   0  0  0  0  0  0  0  0  0  0  0  0
    8.2742   -1.2228   21.1988 O   0  0  0  0  0  0  0  0  0  0  0  0
    6.9050   -1.4503   20.8618 C   0  0  0  0  0  0  0  0  0  0  0  0
    6.6135   -0.6539   19.6282 C   0  0  0  0  0  0  0  0  0  0  0  0
    7.5676    0.2418   19.1229 C   0  0  0  0  0  0  0  0  0  0  0  0
    7.2823    1.0072   18.0002 C   0  0  0  0  0  0  0  0  0  0  0  0
    6.0416    0.8834   17.3669 C   0  0  0  0  0  0  0  0  0  0  0  0
    5.0862    0.0025   17.8639 C   0  0  0  0  0  0  0  0  0  0  0  0
    5.3677   -0.7639   18.9958 C   0  0  0  0  0  0  0  0  0  0  0  0
  1  2  1  0
  2  3  1  0
  3  4  1  0
  4  5  1  6
  4  6  1  0
  4  7  1  0
  7  8  1  0
  8  9  1  1
  8 10  1  0
 10 11  1  0
 11 12  1  0
 12 13  1  0
 13 14  2  0
 13 18  1  0
 14 15  1  0
 15 16  2  0
 16 17  1  0
 17 18  2  0
M  END
>  <CHROM.1>  (91) 
178.30522338,-64.01532830,169.43738032,56.64067523,53.88063232,-176.85172970
-179.59147040,-7.35488032,9.36034152,0.08649752,21.54327333,-0.16512992,-0.69204047
-0.54875173

>  <Name>  (91) 
COCC(C)(N)CC(C)COCc1ccccc1

>  <RI>  (91) 
0

>  <Rbt.Current_Directory>  (91) 
/home/gse84885/github/im/docking-validation/targets/mpro/expts/jackall/work/Mpro-x0072_0/work/1d/dadf88119d78d672f73efd40126c8f

>  <Rbt.Executable>  (91) 
rbdock ($Id: //depot/dev/client3/rdock/2013.1/src/exe/rbdock.cxx#4 $)

>  <Rbt.Library>  (91) 
libRbt.so (2013.1, Build901 2013/11/27)

>  <Rbt.Parameter_File>  (91) 
/rDock_2013.1/data/scripts/dock.prm

>  <Rbt.Receptor>  (91) 
docking-global.prm

>  <SCORE>  (91) 
-6.57701

>  <SCORE.INTER>  (91) 
-6.46944

>  <SCORE.INTER.CONST>  (91) 
1

>  <SCORE.INTER.POLAR>  (91) 
0

>  <SCORE.INTER.REPUL>  (91) 
0.0655923

>  <SCORE.INTER.ROT>  (91) 
8

>  <SCORE.INTER.VDW>  (91) 
-20.1974

>  <SCORE.INTER.norm>  (91) 
-0.359413

>  <SCORE.INTRA>  (91) 
-0.107573

>  <SCORE.INTRA.DIHEDRAL>  (91) 
-2.56555

>  <SCORE.INTRA.DIHEDRAL.0>  (91) 
4.28949

>  <SCORE.INTRA.POLAR>  (91) 
0

>  <SCORE.INTRA.POLAR.0>  (91) 
0

>  <SCORE.INTRA.REPUL>  (91) 
0

>  <SCORE.INTRA.REPUL.0>  (91) 
0

>  <SCORE.INTRA.VDW>  (91) 
1.1752

>  <SCORE.INTRA.VDW.0>  (91) 
-0.996709

>  <SCORE.INTRA.norm>  (91) 
-0.00597628

>  <SCORE.RESTR>  (91) 
0

>  <SCORE.RESTR.CAVITY>  (91) 
0

>  <SCORE.RESTR.norm>  (91) 
0

>  <SCORE.SYSTEM>  (91) 
0

>  <SCORE.SYSTEM.CONST>  (91) 
0

>  <SCORE.SYSTEM.DIHEDRAL>  (91) 
0

>  <SCORE.SYSTEM.norm>  (91) 
0

>  <SCORE.heavy>  (91) 
18

>  <SCORE.norm>  (91) 
-0.365389

>  <XChemDeepScore>  (91) 
0.969034

>  <SuCOS_Max_Score>  (91) 
0.45034440770719431

>  <SuCOS_Max_FeatureMap_Score>  (91) 
0.26794545258253016

>  <SuCOS_Max_Protrude_Score>  (91) 
0.63274336283185839

>  <SuCOS_Max_Index>  (91) 
6

>  <SuCOS_Cum_Score>  (91) 
2.1162062633088992

>  <SuCOS_Cum_FeatureMap_Score>  (91) 
0.55875124456618375

>  <SuCOS_Cum_Protrude_Score>  (91) 
3.673661282051615

$$$$
CC(C)(CNC(=N)NCc1ccccc1)c1ccncc1
     RDKit          3D

 21 22  0  0  0  0  0  0  0  0999 V2000
    9.5447   -0.6419   25.9053 C   0  0  0  0  0  0  0  0  0  0  0  0
    9.5674   -1.7525   24.8220 C   0  0  0  0  0  0  0  0  0  0  0  0
    8.2552   -1.6083   24.0164 C   0  0  0  0  0  0  0  0  0  0  0  0
   10.7859   -1.4502   23.8845 C   0  0  0  0  0  0  0  0  0  0  0  0
   10.8629   -0.1269   23.1700 N   0  0  0  0  0  0  0  0  0  0  0  0
   11.7503    0.8902   23.2174 C   0  0  0  0  0  0  0  0  0  0  0  0
   12.9996    0.7260   23.6402 N   0  0  0  0  0  0  0  0  0  0  0  0
   11.3798    2.1171   22.7984 N   0  0  0  0  0  0  0  0  0  0  0  0
   12.3561    3.2004   22.5885 C   0  0  0  0  0  0  0  0  0  0  0  0
   12.0792    4.3431   23.5278 C   0  0  0  0  0  0  0  0  0  0  0  0
   10.7917    4.8971   23.6352 C   0  0  0  0  0  0  0  0  0  0  0  0
   10.5418    5.9570   24.5127 C   0  0  0  0  0  0  0  0  0  0  0  0
   11.5732    6.4601   25.3017 C   0  0  0  0  0  0  0  0  0  0  0  0
   12.8496    5.9089   25.2161 C   0  0  0  0  0  0  0  0  0  0  0  0
   13.1041    4.8599   24.3309 C   0  0  0  0  0  0  0  0  0  0  0  0
    9.5810   -3.1876   25.3682 C   0  0  0  0  0  0  0  0  0  0  0  0
    9.0383   -3.5024   26.6236 C   0  0  0  0  0  0  0  0  0  0  0  0
    9.3095   -4.7413   27.1846 C   0  0  0  0  0  0  0  0  0  0  0  0
   10.0677   -5.6793   26.5836 N   0  0  0  0  0  0  0  0  0  0  0  0
   10.4653   -5.4331   25.3223 C   0  0  0  0  0  0  0  0  0  0  0  0
   10.2316   -4.2287   24.6738 C   0  0  0  0  0  0  0  0  0  0  0  0
  1  2  1  0
  2  3  1  0
  2  4  1  0
  2 16  1  0
  4  5  1  0
  5  6  1  0
  6  7  2  0
  6  8  1  0
  8  9  1  0
  9 10  1  0
 10 11  2  0
 10 15  1  0
 11 12  1  0
 12 13  2  0
 13 14  1  0
 14 15  2  0
 16 17  2  0
 16 21  1  0
 17 18  1  0
 18 19  2  0
 19 20  1  0
 20 21  2  0
M  END
>  <CHROM.1>  (92) 
-58.04067745,26.68090423,118.05869524,-117.18447794,-50.87175240,10.80200638
0.30511135,24.57994059,1.99135928,-0.95713694,-2.96722283

>  <Name>  (92) 
CC(C)(CNC(=N)NCc1ccccc1)c1ccncc1

>  <RI>  (92) 
0

>  <Rbt.Current_Directory>  (92) 
/home/gse84885/github/im/docking-validation/targets/mpro/expts/jackall/work/Mpro-x0072_0/work/fa/86377c27829f194b50bc5c884949b2

>  <Rbt.Executable>  (92) 
rbdock ($Id: //depot/dev/client3/rdock/2013.1/src/exe/rbdock.cxx#4 $)

>  <Rbt.Library>  (92) 
libRbt.so (2013.1, Build901 2013/11/27)

>  <Rbt.Parameter_File>  (92) 
/rDock_2013.1/data/scripts/dock.prm

>  <Rbt.Receptor>  (92) 
docking-global.prm

>  <SCORE>  (92) 
-11.1505

>  <SCORE.INTER>  (92) 
-11.2538

>  <SCORE.INTER.CONST>  (92) 
1

>  <SCORE.INTER.POLAR>  (92) 
0

>  <SCORE.INTER.REPUL>  (92) 
0

>  <SCORE.INTER.ROT>  (92) 
5

>  <SCORE.INTER.VDW>  (92) 
-21.6538

>  <SCORE.INTER.norm>  (92) 
-0.535895

>  <SCORE.INTRA>  (92) 
0.103271

>  <SCORE.INTRA.DIHEDRAL>  (92) 
-2.6069

>  <SCORE.INTRA.DIHEDRAL.0>  (92) 
4.01171

>  <SCORE.INTRA.POLAR>  (92) 
0

>  <SCORE.INTRA.POLAR.0>  (92) 
0

>  <SCORE.INTRA.REPUL>  (92) 
0

>  <SCORE.INTRA.REPUL.0>  (92) 
0

>  <SCORE.INTRA.VDW>  (92) 
1.40672

>  <SCORE.INTRA.VDW.0>  (92) 
-1.07422

>  <SCORE.INTRA.norm>  (92) 
0.00491768

>  <SCORE.RESTR>  (92) 
0

>  <SCORE.RESTR.CAVITY>  (92) 
0

>  <SCORE.RESTR.norm>  (92) 
0

>  <SCORE.SYSTEM>  (92) 
0

>  <SCORE.SYSTEM.CONST>  (92) 
0

>  <SCORE.SYSTEM.DIHEDRAL>  (92) 
0

>  <SCORE.SYSTEM.norm>  (92) 
0

>  <SCORE.heavy>  (92) 
21

>  <SCORE.norm>  (92) 
-0.530977

>  <XChemDeepScore>  (92) 
0.968766

>  <SuCOS_Max_Score>  (92) 
0.33440227422340313

>  <SuCOS_Max_FeatureMap_Score>  (92) 
0.0096496188693414361

>  <SuCOS_Max_Protrude_Score>  (92) 
0.6591549295774648

>  <SuCOS_Max_Index>  (92) 
0

>  <SuCOS_Cum_Score>  (92) 
1.7633239543393553

>  <SuCOS_Cum_FeatureMap_Score>  (92) 
0.076096826053780708

>  <SuCOS_Cum_Protrude_Score>  (92) 
3.4505510826249299

$$$$
CC(COCc1ccccc1)CC(N)Cc1ccncc1
     RDKit          3D

 21 22  0  0  0  0  0  0  0  0999 V2000
   13.3009   -1.5529   21.9734 C   0  0  0  0  0  0  0  0  0  0  0  0
   12.0487   -1.0824   22.7098 C   0  0  1  0  0  0  0  0  0  0  0  0
   11.4658    0.1623   22.0107 C   0  0  0  0  0  0  0  0  0  0  0  0
   12.1557    1.3650   22.3553 O   0  0  0  0  0  0  0  0  0  0  0  0
   11.5652    2.5275   21.7771 C   0  0  0  0  0  0  0  0  0  0  0  0
   12.1953    3.8078   22.2585 C   0  0  0  0  0  0  0  0  0  0  0  0
   13.2740    4.4188   21.6092 C   0  0  0  0  0  0  0  0  0  0  0  0
   13.8099    5.6104   22.1010 C   0  0  0  0  0  0  0  0  0  0  0  0
   13.2704    6.2030   23.2424 C   0  0  0  0  0  0  0  0  0  0  0  0
   12.1931    5.6114   23.8924 C   0  0  0  0  0  0  0  0  0  0  0  0
   11.6582    4.4152   23.4049 C   0  0  0  0  0  0  0  0  0  0  0  0
   10.9708   -2.1837   22.8301 C   0  0  0  0  0  0  0  0  0  0  0  0
    9.6801   -1.7694   23.5681 C   0  0  1  0  0  0  0  0  0  0  0  0
    8.9331   -0.7551   22.8169 N   0  0  0  0  0  0  0  0  0  0  0  0
    8.7948   -3.0152   23.8122 C   0  0  0  0  0  0  0  0  0  0  0  0
    9.2670   -3.8860   24.9548 C   0  0  0  0  0  0  0  0  0  0  0  0
    8.7695   -3.6926   26.2468 C   0  0  0  0  0  0  0  0  0  0  0  0
    9.2374   -4.5053   27.2674 C   0  0  0  0  0  0  0  0  0  0  0  0
   10.1524   -5.4835   27.0948 N   0  0  0  0  0  0  0  0  0  0  0  0
   10.6244   -5.6485   25.8414 C   0  0  0  0  0  0  0  0  0  0  0  0
   10.2161   -4.8914   24.7539 C   0  0  0  0  0  0  0  0  0  0  0  0
  2  1  1  6
  2  3  1  0
  2 12  1  0
  3  4  1  0
  4  5  1  0
  5  6  1  0
  6  7  2  0
  6 11  1  0
  7  8  1  0
  8  9  2  0
  9 10  1  0
 10 11  2  0
 12 13  1  0
 13 14  1  6
 13 15  1  0
 15 16  1  0
 16 17  2  0
 16 21  1  0
 17 18  1  0
 18 19  2  0
 19 20  1  0
 20 21  2  0
M  END
>  <CHROM.1>  (93) 
-79.89325679,179.89141762,-176.23894831,173.66197503,90.89893892,66.52396503
77.19253547,92.39328280,11.13512175,-0.22748573,23.61298069,-2.25208132,1.07252719
0.29590902

>  <Name>  (93) 
CC(COCc1ccccc1)CC(N)Cc1ccncc1

>  <RI>  (93) 
0

>  <Rbt.Current_Directory>  (93) 
/home/gse84885/github/im/docking-validation/targets/mpro/expts/jackall/work/Mpro-x0072_0/work/1c/aff0ebc27ed59b1d8bc33a4bd4b0dd

>  <Rbt.Executable>  (93) 
rbdock ($Id: //depot/dev/client3/rdock/2013.1/src/exe/rbdock.cxx#4 $)

>  <Rbt.Library>  (93) 
libRbt.so (2013.1, Build901 2013/11/27)

>  <Rbt.Parameter_File>  (93) 
/rDock_2013.1/data/scripts/dock.prm

>  <Rbt.Receptor>  (93) 
docking-global.prm

>  <SCORE>  (93) 
-10.5143

>  <SCORE.INTER>  (93) 
-11.1703

>  <SCORE.INTER.CONST>  (93) 
1

>  <SCORE.INTER.POLAR>  (93) 
0

>  <SCORE.INTER.REPUL>  (93) 
0

>  <SCORE.INTER.ROT>  (93) 
8

>  <SCORE.INTER.VDW>  (93) 
-24.5703

>  <SCORE.INTER.norm>  (93) 
-0.531919

>  <SCORE.INTRA>  (93) 
0.656042

>  <SCORE.INTRA.DIHEDRAL>  (93) 
2.35484

>  <SCORE.INTRA.DIHEDRAL.0>  (93) 
1.88822

>  <SCORE.INTRA.POLAR>  (93) 
0

>  <SCORE.INTRA.POLAR.0>  (93) 
0

>  <SCORE.INTRA.REPUL>  (93) 
0

>  <SCORE.INTRA.REPUL.0>  (93) 
0

>  <SCORE.INTRA.VDW>  (93) 
-0.521377

>  <SCORE.INTRA.VDW.0>  (93) 
-0.777863

>  <SCORE.INTRA.norm>  (93) 
0.0312401

>  <SCORE.RESTR>  (93) 
0

>  <SCORE.RESTR.CAVITY>  (93) 
0

>  <SCORE.RESTR.norm>  (93) 
0

>  <SCORE.SYSTEM>  (93) 
0

>  <SCORE.SYSTEM.CONST>  (93) 
0

>  <SCORE.SYSTEM.DIHEDRAL>  (93) 
0

>  <SCORE.SYSTEM.norm>  (93) 
0

>  <SCORE.heavy>  (93) 
21

>  <SCORE.norm>  (93) 
-0.500679

>  <XChemDeepScore>  (93) 
0.968257

>  <SuCOS_Max_Score>  (93) 
0.40525158351525536

>  <SuCOS_Max_FeatureMap_Score>  (93) 
0.093544102703025267

>  <SuCOS_Max_Protrude_Score>  (93) 
0.71695906432748546

>  <SuCOS_Max_Index>  (93) 
0

>  <SuCOS_Cum_Score>  (93) 
1.8930812765040053

>  <SuCOS_Cum_FeatureMap_Score>  (93) 
0.43945957212494369

>  <SuCOS_Cum_Protrude_Score>  (93) 
3.3467029808830664

$$$$
CC(OCc1ccccc1)C(N)C(=O)Cc1cccnc1
     RDKit          3D

 21 22  0  0  0  0  0  0  0  0999 V2000
    9.9578   -1.2842   24.8486 C   0  0  0  0  0  0  0  0  0  0  0  0
   10.7745   -0.5983   23.7471 C   0  0  1  0  0  0  0  0  0  0  0  0
    9.7893   -0.2090   22.7526 O   0  0  0  0  0  0  0  0  0  0  0  0
    9.4269   -1.2822   21.8844 C   0  0  0  0  0  0  0  0  0  0  0  0
    8.3377   -0.9768   20.8949 C   0  0  0  0  0  0  0  0  0  0  0  0
    8.7014   -0.3223   19.7020 C   0  0  0  0  0  0  0  0  0  0  0  0
    7.7594   -0.0656   18.7104 C   0  0  0  0  0  0  0  0  0  0  0  0
    6.4454   -0.4769   18.8951 C   0  0  0  0  0  0  0  0  0  0  0  0
    6.0786   -1.1417   20.0652 C   0  0  0  0  0  0  0  0  0  0  0  0
    7.0186   -1.3986   21.0675 C   0  0  0  0  0  0  0  0  0  0  0  0
   11.6025    0.6177   24.2978 C   0  0  1  0  0  0  0  0  0  0  0  0
   12.4923    0.3186   25.4347 N   0  0  0  0  0  0  0  0  0  0  0  0
   12.5504    1.1716   23.2215 C   0  0  0  0  0  0  0  0  0  0  0  0
   13.7249    0.7970   23.1474 O   0  0  0  0  0  0  0  0  0  0  0  0
   11.9809    2.1987   22.2535 C   0  0  0  0  0  0  0  0  0  0  0  0
   12.5442    3.5690   22.5277 C   0  0  0  0  0  0  0  0  0  0  0  0
   13.0954    4.3395   21.5056 C   0  0  0  0  0  0  0  0  0  0  0  0
   13.5070    5.6415   21.7773 C   0  0  0  0  0  0  0  0  0  0  0  0
   13.3542    6.1231   23.0673 C   0  0  0  0  0  0  0  0  0  0  0  0
   12.8453    5.4010   24.0852 N   0  0  0  0  0  0  0  0  0  0  0  0
   12.4466    4.1440   23.7925 C   0  0  0  0  0  0  0  0  0  0  0  0
  2  1  1  1
  2  3  1  0
  2 11  1  0
  3  4  1  0
  4  5  1  0
  5  6  2  0
  5 10  1  0
  6  7  1  0
  7  8  2  0
  8  9  1  0
  9 10  2  0
 11 12  1  1
 11 13  1  0
 13 14  2  0
 13 15  1  0
 15 16  1  0
 16 17  2  0
 16 21  1  0
 17 18  1  0
 18 19  2  0
 19 20  1  0
 20 21  2  0
M  END
>  <CHROM.1>  (94) 
-81.52705743,54.53982003,175.71266415,82.77144720,-94.27227621,108.74850789
129.32119593,10.71377083,1.23185979,22.31973292,-2.84323746,-0.76586255,-0.66450406

>  <Name>  (94) 
CC(OCc1ccccc1)C(N)C(=O)Cc1cccnc1

>  <RI>  (94) 
0

>  <Rbt.Current_Directory>  (94) 
/home/gse84885/github/im/docking-validation/targets/mpro/expts/jackall/work/Mpro-x0072_0/work/1a/2694b1304f80441ea16ba71352daa7

>  <Rbt.Executable>  (94) 
rbdock ($Id: //depot/dev/client3/rdock/2013.1/src/exe/rbdock.cxx#4 $)

>  <Rbt.Library>  (94) 
libRbt.so (2013.1, Build901 2013/11/27)

>  <Rbt.Parameter_File>  (94) 
/rDock_2013.1/data/scripts/dock.prm

>  <Rbt.Receptor>  (94) 
docking-global.prm

>  <SCORE>  (94) 
-10.4647

>  <SCORE.INTER>  (94) 
-11.0463

>  <SCORE.INTER.CONST>  (94) 
1

>  <SCORE.INTER.POLAR>  (94) 
0

>  <SCORE.INTER.REPUL>  (94) 
0

>  <SCORE.INTER.ROT>  (94) 
7

>  <SCORE.INTER.VDW>  (94) 
-23.4463

>  <SCORE.INTER.norm>  (94) 
-0.526015

>  <SCORE.INTRA>  (94) 
0.581645

>  <SCORE.INTRA.DIHEDRAL>  (94) 
1.24081

>  <SCORE.INTRA.DIHEDRAL.0>  (94) 
5.16432

>  <SCORE.INTRA.POLAR>  (94) 
0

>  <SCORE.INTRA.POLAR.0>  (94) 
0

>  <SCORE.INTRA.REPUL>  (94) 
0

>  <SCORE.INTRA.REPUL.0>  (94) 
0

>  <SCORE.INTRA.VDW>  (94) 
-0.0387585

>  <SCORE.INTRA.VDW.0>  (94) 
-0.843345

>  <SCORE.INTRA.norm>  (94) 
0.0276974

>  <SCORE.RESTR>  (94) 
0

>  <SCORE.RESTR.CAVITY>  (94) 
0

>  <SCORE.RESTR.norm>  (94) 
0

>  <SCORE.SYSTEM>  (94) 
0

>  <SCORE.SYSTEM.CONST>  (94) 
0

>  <SCORE.SYSTEM.DIHEDRAL>  (94) 
0

>  <SCORE.SYSTEM.norm>  (94) 
0

>  <SCORE.heavy>  (94) 
21

>  <SCORE.norm>  (94) 
-0.498318

>  <XChemDeepScore>  (94) 
0.967885

>  <SuCOS_Max_Score>  (94) 
0.31677663780279175

>  <SuCOS_Max_FeatureMap_Score>  (94) 
0.0039851692932910427

>  <SuCOS_Max_Protrude_Score>  (94) 
0.62956810631229243

>  <SuCOS_Max_Index>  (94) 
5

>  <SuCOS_Cum_Score>  (94) 
1.8418982196843861

>  <SuCOS_Cum_FeatureMap_Score>  (94) 
0.16456612726047437

>  <SuCOS_Cum_Protrude_Score>  (94) 
3.5192303121082973

$$$$
COC(=O)c1ccc(N(C)S(=O)(=O)Cl)cc1
     RDKit          3D

 16 16  0  0  0  0  0  0  0  0999 V2000
   12.9506    4.2910   23.6602 C   0  0  0  0  0  0  0  0  0  0  0  0
   11.8647    3.4418   23.2800 O   0  0  0  0  0  0  0  0  0  0  0  0
   12.2451    2.2046   22.8728 C   0  0  0  0  0  0  0  0  0  0  0  0
   13.3505    1.7097   23.0291 O   0  0  0  0  0  0  0  0  0  0  0  0
   11.1319    1.5090   22.1684 C   0  0  0  0  0  0  0  0  0  0  0  0
    9.9663    2.2373   21.8801 C   0  0  0  0  0  0  0  0  0  0  0  0
    8.8738    1.6218   21.2552 C   0  0  0  0  0  0  0  0  0  0  0  0
    8.9447    0.2696   20.9139 C   0  0  0  0  0  0  0  0  0  0  0  0
    7.8523   -0.4303   20.3137 N   0  0  0  0  0  0  0  0  0  0  0  0
    6.6869   -0.7425   21.1544 C   0  0  0  0  0  0  0  0  0  0  0  0
    7.5413   -0.1365   18.6695 S   0  0  0  0  0  0  0  0  0  0  0  0
    7.0310    1.2059   18.4977 O   0  0  0  0  0  0  0  0  0  0  0  0
    8.6712   -0.6223   17.9049 O   0  0  0  0  0  0  0  0  0  0  0  0
    5.9969   -1.3651   18.1204 Cl  0  0  0  0  0  0  0  0  0  0  0  0
   10.1094   -0.4540   21.1778 C   0  0  0  0  0  0  0  0  0  0  0  0
   11.1987    0.1583   21.8069 C   0  0  0  0  0  0  0  0  0  0  0  0
  1  2  1  0
  2  3  1  0
  3  4  2  0
  3  5  1  0
  5  6  2  0
  5 16  1  0
  6  7  1  0
  7  8  2  0
  8  9  1  0
  8 15  1  0
  9 10  1  0
  9 11  1  0
 11 12  2  0
 11 13  2  0
 11 14  1  0
 15 16  2  0
M  END
>  <CHROM.1>  (95) 
13.62393301,7.71237009,-72.24383256,-69.52312941,9.19686243,0.68466940,20.61463305
0.59277934,-0.56586070,0.25130054

>  <Name>  (95) 
COC(=O)c1ccc(N(C)S(=O)(=O)Cl)cc1

>  <RI>  (95) 
0

>  <Rbt.Current_Directory>  (95) 
/home/gse84885/github/im/docking-validation/targets/mpro/expts/jackall/work/Mpro-x0072_0/work/56/9a09767cd1716521d9e93ff110dac2

>  <Rbt.Executable>  (95) 
rbdock ($Id: //depot/dev/client3/rdock/2013.1/src/exe/rbdock.cxx#4 $)

>  <Rbt.Library>  (95) 
libRbt.so (2013.1, Build901 2013/11/27)

>  <Rbt.Parameter_File>  (95) 
/rDock_2013.1/data/scripts/dock.prm

>  <Rbt.Receptor>  (95) 
docking-global.prm

>  <SCORE>  (95) 
-8.35007

>  <SCORE.INTER>  (95) 
-9.55677

>  <SCORE.INTER.CONST>  (95) 
1

>  <SCORE.INTER.POLAR>  (95) 
0

>  <SCORE.INTER.REPUL>  (95) 
0

>  <SCORE.INTER.ROT>  (95) 
4

>  <SCORE.INTER.VDW>  (95) 
-18.9568

>  <SCORE.INTER.norm>  (95) 
-0.597298

>  <SCORE.INTRA>  (95) 
1.2067

>  <SCORE.INTRA.DIHEDRAL>  (95) 
1.81788

>  <SCORE.INTRA.DIHEDRAL.0>  (95) 
0.865925

>  <SCORE.INTRA.POLAR>  (95) 
0

>  <SCORE.INTRA.POLAR.0>  (95) 
0

>  <SCORE.INTRA.REPUL>  (95) 
0

>  <SCORE.INTRA.REPUL.0>  (95) 
0

>  <SCORE.INTRA.VDW>  (95) 
0.29776

>  <SCORE.INTRA.VDW.0>  (95) 
0.674695

>  <SCORE.INTRA.norm>  (95) 
0.0754186

>  <SCORE.RESTR>  (95) 
0

>  <SCORE.RESTR.CAVITY>  (95) 
0

>  <SCORE.RESTR.norm>  (95) 
0

>  <SCORE.SYSTEM>  (95) 
0

>  <SCORE.SYSTEM.CONST>  (95) 
0

>  <SCORE.SYSTEM.DIHEDRAL>  (95) 
0

>  <SCORE.SYSTEM.norm>  (95) 
0

>  <SCORE.heavy>  (95) 
16

>  <SCORE.norm>  (95) 
-0.52188

>  <XChemDeepScore>  (95) 
0.967597

>  <SuCOS_Max_Score>  (95) 
0.2748472024795095

>  <SuCOS_Max_FeatureMap_Score>  (95) 
0.037819404959018907

>  <SuCOS_Max_Protrude_Score>  (95) 
0.51187500000000008

>  <SuCOS_Max_Index>  (95) 
5

>  <SuCOS_Cum_Score>  (95) 
1.1794593434295888

>  <SuCOS_Cum_FeatureMap_Score>  (95) 
0.10807798792929761

>  <SuCOS_Cum_Protrude_Score>  (95) 
2.2508406989298799

$$$$
SCCCCCc1ccccc1
     RDKit          3D

 12 12  0  0  0  0  0  0  0  0999 V2000
    6.3948    1.4912   17.1811 S   0  0  0  0  0  0  0  0  0  0  0  0
    6.3701    0.4854   18.7115 C   0  0  0  0  0  0  0  0  0  0  0  0
    7.8101    0.2309   19.1729 C   0  0  0  0  0  0  0  0  0  0  0  0
    7.8355   -0.4703   20.5350 C   0  0  0  0  0  0  0  0  0  0  0  0
    9.2725   -0.6931   21.0066 C   0  0  0  0  0  0  0  0  0  0  0  0
    9.9647    0.6319   21.3357 C   0  0  0  0  0  0  0  0  0  0  0  0
   11.3401    0.4347   21.9281 C   0  0  0  0  0  0  0  0  0  0  0  0
   11.9035    1.4099   22.7632 C   0  0  0  0  0  0  0  0  0  0  0  0
   13.1731    1.2237   23.3136 C   0  0  0  0  0  0  0  0  0  0  0  0
   13.8927    0.0631   23.0364 C   0  0  0  0  0  0  0  0  0  0  0  0
   13.3429   -0.9149   22.2108 C   0  0  0  0  0  0  0  0  0  0  0  0
   12.0710   -0.7323   21.6654 C   0  0  0  0  0  0  0  0  0  0  0  0
  1  2  1  0
  2  3  1  0
  3  4  1  0
  4  5  1  0
  5  6  1  0
  6  7  1  0
  7  8  2  0
  7 12  1  0
  8  9  1  0
  9 10  2  0
 10 11  1  0
 11 12  2  0
M  END
>  <CHROM.1>  (96) 
173.54571039,-178.68154730,67.86289520,174.56053240,-154.35831861,9.78613263
0.39259342,20.60860142,-2.85206921,0.58798385,2.80424526

>  <Name>  (96) 
SCCCCCc1ccccc1

>  <RI>  (96) 
0

>  <Rbt.Current_Directory>  (96) 
/home/gse84885/github/im/docking-validation/targets/mpro/expts/jackall/work/Mpro-x0072_0/work/17/4ba8e38932817310c396e40137cc8e

>  <Rbt.Executable>  (96) 
rbdock ($Id: //depot/dev/client3/rdock/2013.1/src/exe/rbdock.cxx#4 $)

>  <Rbt.Library>  (96) 
libRbt.so (2013.1, Build901 2013/11/27)

>  <Rbt.Parameter_File>  (96) 
/rDock_2013.1/data/scripts/dock.prm

>  <Rbt.Receptor>  (96) 
docking-global.prm

>  <SCORE>  (96) 
-7.08326

>  <SCORE.INTER>  (96) 
-8.91739

>  <SCORE.INTER.CONST>  (96) 
1

>  <SCORE.INTER.POLAR>  (96) 
0

>  <SCORE.INTER.REPUL>  (96) 
0

>  <SCORE.INTER.ROT>  (96) 
5

>  <SCORE.INTER.VDW>  (96) 
-19.3174

>  <SCORE.INTER.norm>  (96) 
-0.743116

>  <SCORE.INTRA>  (96) 
1.83413

>  <SCORE.INTRA.DIHEDRAL>  (96) 
0.516436

>  <SCORE.INTRA.DIHEDRAL.0>  (96) 
0.721073

>  <SCORE.INTRA.POLAR>  (96) 
0

>  <SCORE.INTRA.POLAR.0>  (96) 
0

>  <SCORE.INTRA.REPUL>  (96) 
0

>  <SCORE.INTRA.REPUL.0>  (96) 
0

>  <SCORE.INTRA.VDW>  (96) 
1.57591

>  <SCORE.INTRA.VDW.0>  (96) 
-0.655659

>  <SCORE.INTRA.norm>  (96) 
0.152844

>  <SCORE.RESTR>  (96) 
0

>  <SCORE.RESTR.CAVITY>  (96) 
0

>  <SCORE.RESTR.norm>  (96) 
0

>  <SCORE.SYSTEM>  (96) 
0

>  <SCORE.SYSTEM.CONST>  (96) 
0

>  <SCORE.SYSTEM.DIHEDRAL>  (96) 
0

>  <SCORE.SYSTEM.norm>  (96) 
0

>  <SCORE.heavy>  (96) 
12

>  <SCORE.norm>  (96) 
-0.590272

>  <XChemDeepScore>  (96) 
0.967355

>  <SuCOS_Max_Score>  (96) 
0.36550149406602611

>  <SuCOS_Max_FeatureMap_Score>  (96) 
0.085035078150806104

>  <SuCOS_Max_Protrude_Score>  (96) 
0.64596790998124609

>  <SuCOS_Max_Index>  (96) 
5

>  <SuCOS_Cum_Score>  (96) 
1.5621558840024463

>  <SuCOS_Cum_FeatureMap_Score>  (96) 
0.32368821729425978

>  <SuCOS_Cum_Protrude_Score>  (96) 
2.8006235507106325

$$$$
NCCC(c1ccccc1)c1ccncc1
     RDKit          3D

 16 17  0  0  0  0  0  0  0  0999 V2000
    9.6087    4.5727   23.1253 N   0  0  0  0  0  0  0  0  0  0  0  0
    9.0333    3.2726   22.7849 C   0  0  0  0  0  0  0  0  0  0  0  0
   10.0563    2.1783   23.0922 C   0  0  0  0  0  0  0  0  0  0  0  0
   11.3064    2.2048   22.1751 C   0  0  1  0  0  0  0  0  0  0  0  0
   12.1761    3.4403   22.4099 C   0  0  0  0  0  0  0  0  0  0  0  0
   12.7645    4.1555   21.3545 C   0  0  0  0  0  0  0  0  0  0  0  0
   13.7268    5.1375   21.6036 C   0  0  0  0  0  0  0  0  0  0  0  0
   14.1079    5.4320   22.9093 C   0  0  0  0  0  0  0  0  0  0  0  0
   13.4847    4.7864   23.9733 C   0  0  0  0  0  0  0  0  0  0  0  0
   12.5168    3.8048   23.7237 C   0  0  0  0  0  0  0  0  0  0  0  0
   12.0256    0.8581   22.2555 C   0  0  0  0  0  0  0  0  0  0  0  0
   13.2777    0.7721   22.8797 C   0  0  0  0  0  0  0  0  0  0  0  0
   13.9810   -0.4250   22.8214 C   0  0  0  0  0  0  0  0  0  0  0  0
   13.5263   -1.5364   22.2049 N   0  0  0  0  0  0  0  0  0  0  0  0
   12.3178   -1.4436   21.6198 C   0  0  0  0  0  0  0  0  0  0  0  0
   11.5439   -0.2895   21.6196 C   0  0  0  0  0  0  0  0  0  0  0  0
  1  2  1  0
  2  3  1  0
  4  3  1  1
  4  5  1  0
  4 11  1  0
  5  6  2  0
  5 10  1  0
  6  7  1  0
  7  8  2  0
  8  9  1  0
  9 10  2  0
 11 12  2  0
 11 16  1  0
 12 13  1  0
 13 14  2  0
 14 15  1  0
 15 16  2  0
M  END
>  <CHROM.1>  (97) 
-67.65974548,67.51696670,-138.72664730,-110.76394153,12.18527219,2.30564659
22.54157638,1.67145047,0.03519820,0.11842895

>  <Name>  (97) 
NCCC(c1ccccc1)c1ccncc1

>  <RI>  (97) 
0

>  <Rbt.Current_Directory>  (97) 
/home/gse84885/github/im/docking-validation/targets/mpro/expts/jackall/work/Mpro-x0072_0/work/d9/c43ce377e490a35937aa24291a8f75

>  <Rbt.Executable>  (97) 
rbdock ($Id: //depot/dev/client3/rdock/2013.1/src/exe/rbdock.cxx#4 $)

>  <Rbt.Library>  (97) 
libRbt.so (2013.1, Build901 2013/11/27)

>  <Rbt.Parameter_File>  (97) 
/rDock_2013.1/data/scripts/dock.prm

>  <Rbt.Receptor>  (97) 
docking-global.prm

>  <SCORE>  (97) 
-9.75237

>  <SCORE.INTER>  (97) 
-9.92065

>  <SCORE.INTER.CONST>  (97) 
1

>  <SCORE.INTER.POLAR>  (97) 
0

>  <SCORE.INTER.REPUL>  (97) 
0

>  <SCORE.INTER.ROT>  (97) 
4

>  <SCORE.INTER.VDW>  (97) 
-19.3207

>  <SCORE.INTER.norm>  (97) 
-0.620041

>  <SCORE.INTRA>  (97) 
0.168279

>  <SCORE.INTRA.DIHEDRAL>  (97) 
0.390295

>  <SCORE.INTRA.DIHEDRAL.0>  (97) 
1.70269

>  <SCORE.INTRA.POLAR>  (97) 
0

>  <SCORE.INTRA.POLAR.0>  (97) 
0

>  <SCORE.INTRA.REPUL>  (97) 
0

>  <SCORE.INTRA.REPUL.0>  (97) 
0

>  <SCORE.INTRA.VDW>  (97) 
-0.0268691

>  <SCORE.INTRA.VDW.0>  (97) 
-1.22355

>  <SCORE.INTRA.norm>  (97) 
0.0105174

>  <SCORE.RESTR>  (97) 
0

>  <SCORE.RESTR.CAVITY>  (97) 
0

>  <SCORE.RESTR.norm>  (97) 
0

>  <SCORE.SYSTEM>  (97) 
0

>  <SCORE.SYSTEM.CONST>  (97) 
0

>  <SCORE.SYSTEM.DIHEDRAL>  (97) 
0

>  <SCORE.SYSTEM.norm>  (97) 
0

>  <SCORE.heavy>  (97) 
16

>  <SCORE.norm>  (97) 
-0.609523

>  <XChemDeepScore>  (97) 
0.967344

>  <SuCOS_Max_Score>  (97) 
0.39091612058796782

>  <SuCOS_Max_FeatureMap_Score>  (97) 
0.17238929232524194

>  <SuCOS_Max_Protrude_Score>  (97) 
0.60944294885069372

>  <SuCOS_Max_Index>  (97) 
1

>  <SuCOS_Cum_Score>  (97) 
1.6960886362492493

>  <SuCOS_Cum_FeatureMap_Score>  (97) 
0.42963536855907841

>  <SuCOS_Cum_Protrude_Score>  (97) 
2.9625419039394192

$$$$
CCC(N)C(F)CCCc1ccccc1
     RDKit          3D

 15 15  0  0  0  0  0  0  0  0999 V2000
   12.5486    3.3410   23.6138 C   0  0  0  0  0  0  0  0  0  0  0  0
   12.3950    2.0766   22.7838 C   0  0  0  0  0  0  0  0  0  0  0  0
   13.2092    0.8823   23.3226 C   0  0  1  0  0  0  0  0  0  0  0  0
   12.7132    0.4335   24.6296 N   0  0  0  0  0  0  0  0  0  0  0  0
   13.1896   -0.2489   22.2736 C   0  0  1  0  0  0  0  0  0  0  0  0
   14.1754   -1.1215   22.6392 F   0  0  0  0  0  0  0  0  0  0  0  0
   11.8610   -1.0053   22.2136 C   0  0  0  0  0  0  0  0  0  0  0  0
   10.7653   -0.2263   21.4798 C   0  0  0  0  0  0  0  0  0  0  0  0
    9.4578   -1.0103   21.3486 C   0  0  0  0  0  0  0  0  0  0  0  0
    8.4409   -0.2760   20.5204 C   0  0  0  0  0  0  0  0  0  0  0  0
    8.4856   -0.3716   19.1225 C   0  0  0  0  0  0  0  0  0  0  0  0
    7.5571    0.3087   18.3431 C   0  0  0  0  0  0  0  0  0  0  0  0
    6.5781    1.0909   18.9542 C   0  0  0  0  0  0  0  0  0  0  0  0
    6.5261    1.1888   20.3448 C   0  0  0  0  0  0  0  0  0  0  0  0
    7.4555    0.5059   21.1280 C   0  0  0  0  0  0  0  0  0  0  0  0
  1  2  1  0
  2  3  1  0
  3  4  1  1
  3  5  1  0
  5  6  1  1
  5  7  1  0
  7  8  1  0
  8  9  1  0
  9 10  1  0
 10 11  2  0
 10 15  1  0
 11 12  1  0
 12 13  2  0
 13 14  1  0
 14 15  2  0
M  END
>  <CHROM.1>  (98) 
66.08479273,165.21651352,76.75317185,176.78649265,-174.89890915,83.41610633
10.52403327,0.35243762,21.59564478,0.24609176,-0.50449259,0.44854716

>  <Name>  (98) 
CCC(N)C(F)CCCc1ccccc1

>  <RI>  (98) 
0

>  <Rbt.Current_Directory>  (98) 
/home/gse84885/github/im/docking-validation/targets/mpro/expts/jackall/work/Mpro-x0072_0/work/8b/539310e96e7f9103e0adb3d9e701b7

>  <Rbt.Executable>  (98) 
rbdock ($Id: //depot/dev/client3/rdock/2013.1/src/exe/rbdock.cxx#4 $)

>  <Rbt.Library>  (98) 
libRbt.so (2013.1, Build901 2013/11/27)

>  <Rbt.Parameter_File>  (98) 
/rDock_2013.1/data/scripts/dock.prm

>  <Rbt.Receptor>  (98) 
docking-global.prm

>  <SCORE>  (98) 
-6.18444

>  <SCORE.INTER>  (98) 
-6.53629

>  <SCORE.INTER.CONST>  (98) 
1

>  <SCORE.INTER.POLAR>  (98) 
0

>  <SCORE.INTER.REPUL>  (98) 
0

>  <SCORE.INTER.ROT>  (98) 
6

>  <SCORE.INTER.VDW>  (98) 
-17.9363

>  <SCORE.INTER.norm>  (98) 
-0.435753

>  <SCORE.INTRA>  (98) 
0.351853

>  <SCORE.INTRA.DIHEDRAL>  (98) 
2.11521

>  <SCORE.INTRA.DIHEDRAL.0>  (98) 
0.876471

>  <SCORE.INTRA.POLAR>  (98) 
0

>  <SCORE.INTRA.POLAR.0>  (98) 
0

>  <SCORE.INTRA.REPUL>  (98) 
0

>  <SCORE.INTRA.REPUL.0>  (98) 
0

>  <SCORE.INTRA.VDW>  (98) 
-0.705749

>  <SCORE.INTRA.VDW.0>  (98) 
0.41088

>  <SCORE.INTRA.norm>  (98) 
0.0234569

>  <SCORE.RESTR>  (98) 
0

>  <SCORE.RESTR.CAVITY>  (98) 
0

>  <SCORE.RESTR.norm>  (98) 
0

>  <SCORE.SYSTEM>  (98) 
0

>  <SCORE.SYSTEM.CONST>  (98) 
0

>  <SCORE.SYSTEM.DIHEDRAL>  (98) 
0

>  <SCORE.SYSTEM.norm>  (98) 
0

>  <SCORE.heavy>  (98) 
15

>  <SCORE.norm>  (98) 
-0.412296

>  <XChemDeepScore>  (98) 
0.967259

>  <SuCOS_Max_Score>  (98) 
0.3408122006748997

>  <SuCOS_Max_FeatureMap_Score>  (98) 
0.0093975456367051836

>  <SuCOS_Max_Protrude_Score>  (98) 
0.67222685571309426

>  <SuCOS_Max_Index>  (98) 
5

>  <SuCOS_Cum_Score>  (98) 
1.8882941749414592

>  <SuCOS_Cum_FeatureMap_Score>  (98) 
0.4288807981855996

>  <SuCOS_Cum_Protrude_Score>  (98) 
3.3477075516973187

$$$$
COC(=O)c1ccc(CS(=O)(=O)F)cc1
     RDKit          3D

 15 15  0  0  0  0  0  0  0  0999 V2000
    9.9190   -4.6677   24.9554 C   0  0  0  0  0  0  0  0  0  0  0  0
    9.0616   -3.9718   24.0484 O   0  0  0  0  0  0  0  0  0  0  0  0
    9.6914   -3.0375   23.2936 C   0  0  0  0  0  0  0  0  0  0  0  0
   10.8870   -2.7896   23.3119 O   0  0  0  0  0  0  0  0  0  0  0  0
    8.7199   -2.3283   22.4150 C   0  0  0  0  0  0  0  0  0  0  0  0
    7.3874   -2.7589   22.4194 C   0  0  0  0  0  0  0  0  0  0  0  0
    6.4376   -2.1368   21.6038 C   0  0  0  0  0  0  0  0  0  0  0  0
    6.8045   -1.0738   20.7665 C   0  0  0  0  0  0  0  0  0  0  0  0
    5.7855   -0.4261   19.8661 C   0  0  0  0  0  0  0  0  0  0  0  0
    6.1383   -0.7889   18.1590 S   0  0  0  0  0  0  0  0  0  0  0  0
    5.1627   -0.1311   17.3121 O   0  0  0  0  0  0  0  0  0  0  0  0
    7.5602   -0.6013   17.9447 O   0  0  0  0  0  0  0  0  0  0  0  0
    5.8963   -2.3453   17.9616 F   0  0  0  0  0  0  0  0  0  0  0  0
    8.1380   -0.6385   20.7706 C   0  0  0  0  0  0  0  0  0  0  0  0
    9.0895   -1.2620   21.5861 C   0  0  0  0  0  0  0  0  0  0  0  0
  1  2  1  0
  2  3  1  0
  3  4  2  0
  3  5  1  0
  5  6  2  0
  5 15  1  0
  6  7  1  0
  7  8  2  0
  8  9  1  0
  8 14  1  0
  9 10  1  0
 10 11  2  0
 10 12  2  0
 10 13  1  0
 14 15  2  0
M  END
>  <CHROM.1>  (99) 
1.97717140,-4.12055787,-111.20625729,-178.74041019,7.61740107,-1.85906823
20.76469910,1.00616651,0.36107844,2.22978122

>  <Name>  (99) 
COC(=O)c1ccc(CS(=O)(=O)F)cc1

>  <RI>  (99) 
0

>  <Rbt.Current_Directory>  (99) 
/home/gse84885/github/im/docking-validation/targets/mpro/expts/jackall/work/Mpro-x0072_0/work/f7/2ee8bdfa6d827175e6dc29e33996aa

>  <Rbt.Executable>  (99) 
rbdock ($Id: //depot/dev/client3/rdock/2013.1/src/exe/rbdock.cxx#4 $)

>  <Rbt.Library>  (99) 
libRbt.so (2013.1, Build901 2013/11/27)

>  <Rbt.Parameter_File>  (99) 
/rDock_2013.1/data/scripts/dock.prm

>  <Rbt.Receptor>  (99) 
docking-global.prm

>  <SCORE>  (99) 
-5.00879

>  <SCORE.INTER>  (99) 
-5.5779

>  <SCORE.INTER.CONST>  (99) 
1

>  <SCORE.INTER.POLAR>  (99) 
0

>  <SCORE.INTER.REPUL>  (99) 
0

>  <SCORE.INTER.ROT>  (99) 
4

>  <SCORE.INTER.VDW>  (99) 
-14.9779

>  <SCORE.INTER.norm>  (99) 
-0.37186

>  <SCORE.INTRA>  (99) 
0.569111

>  <SCORE.INTRA.DIHEDRAL>  (99) 
-0.0488787

>  <SCORE.INTRA.DIHEDRAL.0>  (99) 
1.08104

>  <SCORE.INTRA.POLAR>  (99) 
0

>  <SCORE.INTRA.POLAR.0>  (99) 
0

>  <SCORE.INTRA.REPUL>  (99) 
0

>  <SCORE.INTRA.REPUL.0>  (99) 
0

>  <SCORE.INTRA.VDW>  (99) 
0.593551

>  <SCORE.INTRA.VDW.0>  (99) 
0.665572

>  <SCORE.INTRA.norm>  (99) 
0.0379407

>  <SCORE.RESTR>  (99) 
0

>  <SCORE.RESTR.CAVITY>  (99) 
0

>  <SCORE.RESTR.norm>  (99) 
0

>  <SCORE.SYSTEM>  (99) 
0

>  <SCORE.SYSTEM.CONST>  (99) 
0

>  <SCORE.SYSTEM.DIHEDRAL>  (99) 
0

>  <SCORE.SYSTEM.norm>  (99) 
0

>  <SCORE.heavy>  (99) 
15

>  <SCORE.norm>  (99) 
-0.33392

>  <XChemDeepScore>  (99) 
0.966850

>  <SuCOS_Max_Score>  (99) 
0.21625215519082419

>  <SuCOS_Max_FeatureMap_Score>  (99) 
0.022124985663015573

>  <SuCOS_Max_Protrude_Score>  (99) 
0.41037932471863281

>  <SuCOS_Max_Index>  (99) 
5

>  <SuCOS_Cum_Score>  (99) 
0.74147062447502488

>  <SuCOS_Cum_FeatureMap_Score>  (99) 
0.11217912636714508

>  <SuCOS_Cum_Protrude_Score>  (99) 
1.3707621225829048

$$$$
COC(=O)c1cccc(N(C)S(=O)(=O)Cl)c1
     RDKit          3D

 16 16  0  0  0  0  0  0  0  0999 V2000
   12.1141    3.9355   22.7685 C   0  0  0  0  0  0  0  0  0  0  0  0
   11.2258    2.8616   22.4572 O   0  0  0  0  0  0  0  0  0  0  0  0
   11.8166    1.6426   22.4380 C   0  0  0  0  0  0  0  0  0  0  0  0
   12.9663    1.3971   22.7687 O   0  0  0  0  0  0  0  0  0  0  0  0
   10.8613    0.6076   21.9577 C   0  0  0  0  0  0  0  0  0  0  0  0
   11.1804   -0.7399   22.1703 C   0  0  0  0  0  0  0  0  0  0  0  0
   10.3157   -1.7463   21.7315 C   0  0  0  0  0  0  0  0  0  0  0  0
    9.1254   -1.4102   21.0828 C   0  0  0  0  0  0  0  0  0  0  0  0
    8.8049   -0.0672   20.8682 C   0  0  0  0  0  0  0  0  0  0  0  0
    7.6071    0.3299   20.1998 N   0  0  0  0  0  0  0  0  0  0  0  0
    6.3374    0.2763   20.9304 C   0  0  0  0  0  0  0  0  0  0  0  0
    7.5522    0.1572   18.5132 S   0  0  0  0  0  0  0  0  0  0  0  0
    7.1286    1.4184   17.9381 O   0  0  0  0  0  0  0  0  0  0  0  0
    8.7469   -0.5184   18.0621 O   0  0  0  0  0  0  0  0  0  0  0  0
    6.0253   -1.1378   18.0767 Cl  0  0  0  0  0  0  0  0  0  0  0  0
    9.6704    0.9399   21.3012 C   0  0  0  0  0  0  0  0  0  0  0  0
  1  2  1  0
  2  3  1  0
  3  4  2  0
  3  5  1  0
  5  6  2  0
  5 16  1  0
  6  7  1  0
  7  8  2  0
  8  9  1  0
  9 10  1  0
  9 16  2  0
 10 11  1  0
 10 12  1  0
 12 13  2  0
 12 14  2  0
 12 15  1  0
M  END
>  <CHROM.1>  (100) 
6.74599640,-164.96202579,76.76226448,-128.78002849,9.03867803,0.39028270
20.40665123,0.25085978,-0.70789541,-0.12026870

>  <Name>  (100) 
COC(=O)c1cccc(N(C)S(=O)(=O)Cl)c1

>  <RI>  (100) 
0

>  <Rbt.Current_Directory>  (100) 
/home/gse84885/github/im/docking-validation/targets/mpro/expts/jackall/work/Mpro-x0072_0/work/c8/f52c12956505f055f5fc1507699664

>  <Rbt.Executable>  (100) 
rbdock ($Id: //depot/dev/client3/rdock/2013.1/src/exe/rbdock.cxx#4 $)

>  <Rbt.Library>  (100) 
libRbt.so (2013.1, Build901 2013/11/27)

>  <Rbt.Parameter_File>  (100) 
/rDock_2013.1/data/scripts/dock.prm

>  <Rbt.Receptor>  (100) 
docking-global.prm

>  <SCORE>  (100) 
-8.17313

>  <SCORE.INTER>  (100) 
-9.26405

>  <SCORE.INTER.CONST>  (100) 
1

>  <SCORE.INTER.POLAR>  (100) 
0

>  <SCORE.INTER.REPUL>  (100) 
0.0144161

>  <SCORE.INTER.ROT>  (100) 
4

>  <SCORE.INTER.VDW>  (100) 
-18.7361

>  <SCORE.INTER.norm>  (100) 
-0.579003

>  <SCORE.INTRA>  (100) 
1.09092

>  <SCORE.INTRA.DIHEDRAL>  (100) 
2.19108

>  <SCORE.INTRA.DIHEDRAL.0>  (100) 
1.09941

>  <SCORE.INTRA.POLAR>  (100) 
0

>  <SCORE.INTRA.POLAR.0>  (100) 
0

>  <SCORE.INTRA.REPUL>  (100) 
0

>  <SCORE.INTRA.REPUL.0>  (100) 
0

>  <SCORE.INTRA.VDW>  (100) 
-0.00462231

>  <SCORE.INTRA.VDW.0>  (100) 
0.743677

>  <SCORE.INTRA.norm>  (100) 
0.0681825

>  <SCORE.RESTR>  (100) 
0

>  <SCORE.RESTR.CAVITY>  (100) 
0

>  <SCORE.RESTR.norm>  (100) 
0

>  <SCORE.SYSTEM>  (100) 
0

>  <SCORE.SYSTEM.CONST>  (100) 
0

>  <SCORE.SYSTEM.DIHEDRAL>  (100) 
0

>  <SCORE.SYSTEM.norm>  (100) 
0

>  <SCORE.heavy>  (100) 
16

>  <SCORE.norm>  (100) 
-0.510821

>  <XChemDeepScore>  (100) 
0.966422

>  <SuCOS_Max_Score>  (100) 
0.32247181726884511

>  <SuCOS_Max_FeatureMap_Score>  (100) 
0.049869537271983698

>  <SuCOS_Max_Protrude_Score>  (100) 
0.59507409726570648

>  <SuCOS_Max_Index>  (100) 
5

>  <SuCOS_Cum_Score>  (100) 
1.3539696620097967

>  <SuCOS_Cum_FeatureMap_Score>  (100) 
0.12698489116856509

>  <SuCOS_Cum_Protrude_Score>  (100) 
2.5809544328510281

$$$$
