O=C(O)C=C(CCc1ccccc1)c1cccnc1
 OpenBabel03122003513D

 19 20  0  0  0  0  0  0  0  0999 V2000
   13.9610   -2.2005   21.8477 O   0  0  0  0  0  0  0  0  0  0  0  0
   13.5457   -1.0577   22.1863 C   0  0  0  0  0  0  0  0  0  0  0  0
   14.1281   -0.1536   22.8408 O   0  0  0  0  0  0  0  0  0  0  0  0
   12.1109   -0.7709   21.7355 C   0  0  0  0  0  0  0  0  0  0  0  0
   11.3440    0.3228   21.9027 C   0  0  0  0  0  0  0  0  0  0  0  0
   11.7067    1.6098   22.6120 C   0  0  0  0  0  0  0  0  0  0  0  0
   11.9181    2.8091   21.6761 C   0  0  0  0  0  0  0  0  0  0  0  0
   12.2757    4.0704   22.4350 C   0  0  0  0  0  0  0  0  0  0  0  0
   11.4714    4.5104   23.4950 C   0  0  0  0  0  0  0  0  0  0  0  0
   11.7945    5.6762   24.1939 C   0  0  0  0  0  0  0  0  0  0  0  0
   12.9204    6.4159   23.8353 C   0  0  0  0  0  0  0  0  0  0  0  0
   13.7229    5.9907   22.7773 C   0  0  0  0  0  0  0  0  0  0  0  0
   13.4016    4.8243   22.0794 C   0  0  0  0  0  0  0  0  0  0  0  0
    9.9712    0.2382   21.3759 C   0  0  0  0  0  0  0  0  0  0  0  0
    9.1679    1.3767   21.2791 C   0  0  0  0  0  0  0  0  0  0  0  0
    7.8543    1.2566   20.8323 C   0  0  0  0  0  0  0  0  0  0  0  0
    7.3893   -0.0043   20.4920 C   0  0  0  0  0  0  0  0  0  0  0  0
    8.1325   -1.1299   20.5624 N   0  0  0  0  0  0  0  0  0  0  0  0
    9.4043   -0.9806   21.0145 C   0  0  0  0  0  0  0  0  0  0  0  0
  1  2  2  0  0  0  0
  2  3  1  0  0  0  0
  2  4  1  0  0  0  0
  4  5  2  0  0  0  0
  5  6  1  0  0  0  0
  5 14  1  0  0  0  0
  6  7  1  0  0  0  0
  7  8  1  0  0  0  0
  8  9  2  0  0  0  0
  8 13  1  0  0  0  0
  9 10  1  0  0  0  0
 10 11  2  0  0  0  0
 11 12  1  0  0  0  0
 12 13  2  0  0  0  0
 14 15  2  0  0  0  0
 14 19  1  0  0  0  0
 15 16  1  0  0  0  0
 16 17  2  0  0  0  0
 17 18  1  0  0  0  0
 18 19  2  0  0  0  0
M  END
>  <CHROM.1>
-179.61176900,108.47735955,-168.61169227,179.88149725,-52.62096472,11.42728253
1.66387952,22.06460012,-2.01283111,-0.26323097,0.20682630

>  <Name>
O=C(O)C=C(CCc1ccccc1)c1cccnc1

>  <RI>
0

>  <Rbt.Current_Directory>
/home/gse84885/github/im/docking-validation/targets/mpro/expts/jackall/work/Mpro-x0072_0/work/f1/5b4cbd033eef16b0a2522d6e8a7325

>  <Rbt.Executable>
rbdock ($Id: //depot/dev/client3/rdock/2013.1/src/exe/rbdock.cxx#4 $)

>  <Rbt.Library>
libRbt.so (2013.1, Build901 2013/11/27)

>  <Rbt.Parameter_File>
/rDock_2013.1/data/scripts/dock.prm

>  <Rbt.Receptor>
docking-global.prm

>  <SCORE>
-14.914

>  <SCORE.INTER>
-10.6469

>  <SCORE.INTER.CONST>
1

>  <SCORE.INTER.POLAR>
0

>  <SCORE.INTER.REPUL>
0

>  <SCORE.INTER.ROT>
5

>  <SCORE.INTER.VDW>
-21.0469

>  <SCORE.INTER.norm>
-0.560364

>  <SCORE.INTRA>
-4.26705

>  <SCORE.INTRA.DIHEDRAL>
-14.6183

>  <SCORE.INTRA.DIHEDRAL.0>
16.3975

>  <SCORE.INTRA.POLAR>
0

>  <SCORE.INTRA.POLAR.0>
0

>  <SCORE.INTRA.REPUL>
0

>  <SCORE.INTRA.REPUL.0>
0

>  <SCORE.INTRA.VDW>
3.0421

>  <SCORE.INTRA.VDW.0>
-1.75195

>  <SCORE.INTRA.norm>
-0.224581

>  <SCORE.RESTR>
0

>  <SCORE.RESTR.CAVITY>
0

>  <SCORE.RESTR.norm>
0

>  <SCORE.SYSTEM>
0

>  <SCORE.SYSTEM.CONST>
0

>  <SCORE.SYSTEM.DIHEDRAL>
0

>  <SCORE.SYSTEM.norm>
0

>  <SCORE.heavy>
19

>  <SCORE.norm>
-0.784945

>  <XChemDeepScore>
0.979310

>  <SuCOS_Max_Score>
0.35941838770063472

>  <SuCOS_Max_FeatureMap_Score>
0.16830980701937234

>  <SuCOS_Max_Protrude_Score>
0.55052696838189707

>  <SuCOS_Max_Index>
1

>  <SuCOS_Cum_Score>
1.742667961903547

>  <SuCOS_Cum_FeatureMap_Score>
0.41331945576715307

>  <SuCOS_Cum_Protrude_Score>
3.0720164680399407

$$$$
