CN(CC#N)Cc1ccc(S(N)(=O)=O)cc1
 OpenBabel03122003513D

 16 16  0  0  0  0  0  0  0  0999 V2000
   11.6191    2.4782   22.0499 C   0  0  0  0  0  0  0  0  0  0  0  0
   11.4467    1.0166   22.0947 N   0  0  0  0  0  0  0  0  0  0  0  0
   12.4365    0.3842   23.0002 C   0  0  0  0  0  0  0  0  0  0  0  0
   13.1388   -0.7804   22.3211 C   0  0  0  0  0  0  0  0  0  0  0  0
   13.7214   -1.7464   21.7579 N   0  0  0  0  0  0  0  0  0  0  0  0
   10.0652    0.6576   22.4717 C   0  0  0  0  0  0  0  0  0  0  0  0
    9.1133    0.6382   21.2877 C   0  0  0  0  0  0  0  0  0  0  0  0
    7.9778    1.4676   21.2711 C   0  0  0  0  0  0  0  0  0  0  0  0
    7.0266    1.3544   20.2540 C   0  0  0  0  0  0  0  0  0  0  0  0
    7.2118    0.4091   19.2464 C   0  0  0  0  0  0  0  0  0  0  0  0
    5.9344    0.1419   17.9879 S   0  0  0  0  0  0  0  0  0  0  0  0
    4.5435    0.3958   18.7114 N   0  0  0  0  0  0  0  0  0  0  0  0
    6.2786    1.1498   16.9909 O   0  0  0  0  0  0  0  0  0  0  0  0
    6.1553   -1.2396   17.5737 O   0  0  0  0  0  0  0  0  0  0  0  0
    8.3492   -0.3996   19.2235 C   0  0  0  0  0  0  0  0  0  0  0  0
    9.3025   -0.2769   20.2364 C   0  0  0  0  0  0  0  0  0  0  0  0
  1  2  1  0  0  0  0
  2  3  1  0  0  0  0
  2  6  1  0  0  0  0
  3  4  1  0  0  0  0
  4  5  3  0  0  0  0
  6  7  1  0  0  0  0
  7  8  2  0  0  0  0
  7 16  1  0  0  0  0
  8  9  1  0  0  0  0
  9 10  2  0  0  0  0
 10 11  1  0  0  0  0
 10 15  1  0  0  0  0
 11 12  1  0  0  0  0
 11 13  2  0  0  0  0
 11 14  2  0  0  0  0
 15 16  2  0  0  0  0
M  END
>  <CHROM.1>
-130.25649852,84.81408486,-121.20801883,-32.88763642,8.74386325,0.34324572
20.16490726,0.34720500,-0.48292967,0.66898111

>  <Name>
CN(CC#N)Cc1ccc(S(N)(=O)=O)cc1

>  <RI>
0

>  <Rbt.Current_Directory>
/home/gse84885/github/im/docking-validation/targets/mpro/expts/jackall/work/Mpro-x0072_0/work/13/b2e6c565aaaabb41975e62df21c06f

>  <Rbt.Executable>
rbdock ($Id: //depot/dev/client3/rdock/2013.1/src/exe/rbdock.cxx#4 $)

>  <Rbt.Library>
libRbt.so (2013.1, Build901 2013/11/27)

>  <Rbt.Parameter_File>
/rDock_2013.1/data/scripts/dock.prm

>  <Rbt.Receptor>
docking-global.prm

>  <SCORE>
-10.2647

>  <SCORE.INTER>
-10.0152

>  <SCORE.INTER.CONST>
1

>  <SCORE.INTER.POLAR>
0

>  <SCORE.INTER.REPUL>
0.0975178

>  <SCORE.INTER.ROT>
4

>  <SCORE.INTER.VDW>
-19.9028

>  <SCORE.INTER.norm>
-0.625952

>  <SCORE.INTRA>
-0.249483

>  <SCORE.INTRA.DIHEDRAL>
3.16828

>  <SCORE.INTRA.DIHEDRAL.0>
2.01542

>  <SCORE.INTRA.POLAR>
0

>  <SCORE.INTRA.POLAR.0>
0

>  <SCORE.INTRA.REPUL>
0

>  <SCORE.INTRA.REPUL.0>
0

>  <SCORE.INTRA.VDW>
-1.83362

>  <SCORE.INTRA.VDW.0>
0.396808

>  <SCORE.INTRA.norm>
-0.0155927

>  <SCORE.RESTR>
0

>  <SCORE.RESTR.CAVITY>
0

>  <SCORE.RESTR.norm>
0

>  <SCORE.SYSTEM>
0

>  <SCORE.SYSTEM.CONST>
0

>  <SCORE.SYSTEM.DIHEDRAL>
0

>  <SCORE.SYSTEM.norm>
0

>  <SCORE.heavy>
16

>  <SCORE.norm>
-0.641545

>  <XChemDeepScore>
0.973815

>  <SuCOS_Max_Score>
0.35929773951509275

>  <SuCOS_Max_FeatureMap_Score>
0.067844853508917738

>  <SuCOS_Max_Protrude_Score>
0.65075062552126772

>  <SuCOS_Max_Index>
5

>  <SuCOS_Cum_Score>
1.441430226599647

>  <SuCOS_Cum_FeatureMap_Score>
0.092436168004614197

>  <SuCOS_Cum_Protrude_Score>
2.7904242851946801

$$$$
