hits.sdf
 OpenBabel03112000213D

 13 13  0  0  0  0  0  0  0  0999 V2000
   10.0624   -7.8563   25.3560 C   0  0  0  0  0  0  0  0  0  0  0  0
    8.7165   -6.6361   25.4245 S   0  0  0  0  0  0  0  0  0  0  0  0
    7.4018   -7.2706   25.5412 O   0  0  0  0  0  0  0  0  0  0  0  0
    8.7394   -5.8773   26.6659 O   0  0  0  0  0  0  0  0  0  0  0  0
    8.7405   -5.6274   24.0565 N   0  0  0  0  0  0  0  0  0  0  0  0
   10.0068   -5.1601   23.5455 C   0  0  0  0  0  0  0  0  0  0  0  0
    9.8579   -3.8471   22.7904 C   0  0  0  0  0  0  0  0  0  0  0  0
   11.2006   -3.1343   22.8375 C   0  0  0  0  0  0  0  0  0  0  0  0
   12.1914   -3.4906   21.9393 C   0  0  0  0  0  0  0  0  0  0  0  0
   13.4220   -2.8673   21.9874 C   0  0  0  0  0  0  0  0  0  0  0  0
   13.6630   -1.8841   22.9361 C   0  0  0  0  0  0  0  0  0  0  0  0
   12.6675   -1.5250   23.8378 C   0  0  0  0  0  0  0  0  0  0  0  0
   11.4335   -2.1575   23.7927 C   0  0  0  0  0  0  0  0  0  0  0  0
  2  1  1  0  0  0  0
  2  3  2  0  0  0  0
  2  4  2  0  0  0  0
  2  5  1  0  0  0  0
  5  6  1  0  0  0  0
  6  7  1  0  0  0  0
  7  8  1  0  0  0  0
  8  9  2  0  0  0  0
  8 13  1  0  0  0  0
  9 10  1  0  0  0  0
 10 11  2  0  0  0  0
 11 12  1  0  0  0  0
 13 12  2  0  0  0  0
M  END
$$$$
