@<TRIPOS>MOLECULE
hits.sdf
13 13 1 0 0
SMALL
NO_CHARGES


@<TRIPOS>ATOM
      1 C1         10.0624   -7.8563   25.3560 C.3       1 UNK    0.0000
      2 S1          8.7165   -6.6361   25.4245 S.o2      1 UNK    0.0000
      3 O1          7.4018   -7.2706   25.5412 O.2       1 UNK    0.0000
      4 O2          8.7394   -5.8773   26.6659 O.2       1 UNK    0.0000
      5 N1          8.7405   -5.6274   24.0565 N.pl3     1 UNK    0.0000
      6 C2         10.0068   -5.1601   23.5455 C.3       1 UNK    0.0000
      7 C3          9.8579   -3.8471   22.7904 C.3       1 UNK    0.0000
      8 C4         11.2006   -3.1343   22.8375 C.ar      1 UNK    0.0000
      9 C5         12.1914   -3.4906   21.9393 C.ar      1 UNK    0.0000
     10 C6         13.4220   -2.8673   21.9874 C.ar      1 UNK    0.0000
     11 C7         13.6630   -1.8841   22.9361 C.ar      1 UNK    0.0000
     12 C8         12.6675   -1.5250   23.8378 C.ar      1 UNK    0.0000
     13 C9         11.4335   -2.1575   23.7927 C.ar      1 UNK    0.0000
@<TRIPOS>BOND
     1    2    1 1
     2    2    3 2
     3    2    4 2
     4    2    5 1
     5    5    6 1
     6    6    7 1
     7    7    8 1
     8    8    9 ar
     9    8   13 ar
    10    9   10 ar
    11   13   12 ar
    12   10   11 ar
    13   11   12 ar
@<TRIPOS>SUBSTRUCTURE
     1 UNK     1 RESIDUE           4 A     UNK     0 ROOT
