C[C@H](OCc1ccccc1)[C@@H](N)C(=O)NO
 OpenBabel03122003513D

 16 16  0  0  0  0  0  0  0  0999 V2000
   13.2623   -1.5781   21.8651 C   0  0  0  0  0  0  0  0  0  0  0  0
   12.1573   -0.5245   21.7179 C   0  0  2  0  0  0  0  0  0  0  0  0
   12.5466    0.7151   22.3694 O   0  0  0  0  0  0  0  0  0  0  0  0
   11.7737    1.8423   21.9512 C   0  0  0  0  0  0  0  0  0  0  0  0
   12.3710    3.1622   22.3905 C   0  0  0  0  0  0  0  0  0  0  0  0
   12.8793    4.1047   21.4905 C   0  0  0  0  0  0  0  0  0  0  0  0
   13.4065    5.3134   21.9542 C   0  0  0  0  0  0  0  0  0  0  0  0
   13.4340    5.5933   23.3197 C   0  0  0  0  0  0  0  0  0  0  0  0
   12.9228    4.6692   24.2258 C   0  0  0  0  0  0  0  0  0  0  0  0
   12.3960    3.4614   23.7634 C   0  0  0  0  0  0  0  0  0  0  0  0
   10.8327   -1.0126   22.3697 C   0  0  1  0  0  0  0  0  0  0  0  0
   10.8717   -0.8395   23.8554 N   0  0  0  0  0  0  0  0  0  0  0  0
    9.6302   -0.2227   21.7987 C   0  0  0  0  0  0  0  0  0  0  0  0
    8.9600    0.5109   22.5285 O   0  0  0  0  0  0  0  0  0  0  0  0
    9.4603   -0.4656   20.4377 N   0  0  0  0  0  0  0  0  0  0  0  0
    8.3945    0.1214   19.7790 O   0  0  0  0  0  0  0  0  0  0  0  0
  2 11  1  0  0  0  0
  2  3  1  0  0  0  0
  2  1  1  1  0  0  0
  3  4  1  0  0  0  0
  4  5  1  0  0  0  0
  5  6  2  0  0  0  0
  5 10  1  0  0  0  0
  6  7  1  0  0  0  0
  7  8  2  0  0  0  0
  8  9  1  0  0  0  0
  9 10  2  0  0  0  0
 11 12  1  1  0  0  0
 11 13  1  0  0  0  0
 13 14  2  0  0  0  0
 13 15  1  0  0  0  0
 15 16  1  0  0  0  0
M  END
>  <CHROM.1>
79.25324683,162.59496919,-167.30944148,113.75479551,-115.52830627,11.52451780
1.46196753,22.20670621,-2.15066435,-0.49485492,-0.03699255

>  <Name>
C[C@H](OCc1ccccc1)[C@@H](N)C(=O)NO

>  <RI>
0

>  <Rbt.Current_Directory>
/home/gse84885/github/im/docking-validation/targets/mpro/expts/jackall/work/Mpro-x0072_0/work/a4/ff5fd3dec70634994f1ba7bb3ac026

>  <Rbt.Executable>
rbdock ($Id: //depot/dev/client3/rdock/2013.1/src/exe/rbdock.cxx#4 $)

>  <Rbt.Library>
libRbt.so (2013.1, Build901 2013/11/27)

>  <Rbt.Parameter_File>
/rDock_2013.1/data/scripts/dock.prm

>  <Rbt.Receptor>
docking-global.prm

>  <SCORE>
-8.11775

>  <SCORE.INTER>
-6.87029

>  <SCORE.INTER.CONST>
1

>  <SCORE.INTER.POLAR>
0

>  <SCORE.INTER.REPUL>
0

>  <SCORE.INTER.ROT>
5

>  <SCORE.INTER.VDW>
-17.2703

>  <SCORE.INTER.norm>
-0.429393

>  <SCORE.INTRA>
-1.24746

>  <SCORE.INTRA.DIHEDRAL>
2.12531

>  <SCORE.INTRA.DIHEDRAL.0>
2.64963

>  <SCORE.INTRA.POLAR>
0

>  <SCORE.INTRA.POLAR.0>
0

>  <SCORE.INTRA.REPUL>
0

>  <SCORE.INTRA.REPUL.0>
0

>  <SCORE.INTRA.VDW>
-2.31012

>  <SCORE.INTRA.VDW.0>
1.39022

>  <SCORE.INTRA.norm>
-0.0779663

>  <SCORE.RESTR>
0

>  <SCORE.RESTR.CAVITY>
0

>  <SCORE.RESTR.norm>
0

>  <SCORE.SYSTEM>
0

>  <SCORE.SYSTEM.CONST>
0

>  <SCORE.SYSTEM.DIHEDRAL>
0

>  <SCORE.SYSTEM.norm>
0

>  <SCORE.heavy>
16

>  <SCORE.norm>
-0.507359

>  <XChemDeepScore>
0.994875

>  <SuCOS_Max_Score>
0.31137126232840218

>  <SuCOS_Max_FeatureMap_Score>
0.054151587350783202

>  <SuCOS_Max_Protrude_Score>
0.56859093730602117

>  <SuCOS_Max_Index>
1

>  <SuCOS_Cum_Score>
1.6576773557081901

>  <SuCOS_Cum_FeatureMap_Score>
0.14088796601276415

>  <SuCOS_Cum_Protrude_Score>
3.174466745403616

$$$$
