NNC(N)=NC(CO)c1ccccc1
 OpenBabel03122003533D

 28 28  0  0  0  0  0  0  0  0999 V2000
   13.7549   -1.4862   21.2255 N   0  0  0  0  0  0  0  0  0  0  0  0
   13.9572   -0.8709   22.4698 N   0  0  0  0  0  0  0  0  0  0  0  0
   13.1996    0.2266   22.8153 C   0  0  0  0  0  0  0  0  0  0  0  0
   13.4542    0.8191   23.9798 N   0  0  0  0  0  0  0  0  0  0  0  0
   12.2335    0.6445   21.9760 N   0  0  0  0  0  0  0  0  0  0  0  0
   11.3460    1.8228   22.1380 C   0  0  1  0  0  0  0  0  0  0  0  0
   10.1376    1.5054   23.0540 C   0  0  0  0  0  0  0  0  0  0  0  0
   10.5592    1.0501   24.3458 O   0  0  0  0  0  0  0  0  0  0  0  0
   12.1929    3.0352   22.4896 C   0  0  0  0  0  0  0  0  0  0  0  0
   12.7381    3.8144   21.4506 C   0  0  0  0  0  0  0  0  0  0  0  0
   13.5297    4.9311   21.7271 C   0  0  0  0  0  0  0  0  0  0  0  0
   13.7896    5.2927   23.0475 C   0  0  0  0  0  0  0  0  0  0  0  0
   13.2477    4.5449   24.0870 C   0  0  0  0  0  0  0  0  0  0  0  0
   12.4527    3.4295   23.8108 C   0  0  0  0  0  0  0  0  0  0  0  0
   14.3921   -2.2769   21.1296 H   0  0  0  0  0  0  0  0  0  0  0  0
   13.9338   -0.8131   20.4803 H   0  0  0  0  0  0  0  0  0  0  0  0
   14.6356   -1.2208   23.0916 H   0  0  0  0  0  0  0  0  0  0  0  0
   14.1719    0.4763   24.5600 H   0  0  0  0  0  0  0  0  0  0  0  0
   12.9248    1.6001   24.2609 H   0  0  0  0  0  0  0  0  0  0  0  0
   10.8628    2.0821   21.2192 H   0  0  0  0  0  0  0  0  0  0  0  0
    9.5441    0.7432   22.5940 H   0  0  0  0  0  0  0  0  0  0  0  0
    9.5718    2.4041   23.1845 H   0  0  0  0  0  0  0  0  0  0  0  0
   11.0749    0.2343   24.2487 H   0  0  0  0  0  0  0  0  0  0  0  0
   12.5496    3.5560   20.4694 H   0  0  0  0  0  0  0  0  0  0  0  0
   13.9226    5.4890   20.9529 H   0  0  0  0  0  0  0  0  0  0  0  0
   14.3820    6.1124   23.2531 H   0  0  0  0  0  0  0  0  0  0  0  0
   13.4333    4.8146   25.0657 H   0  0  0  0  0  0  0  0  0  0  0  0
   12.0502    2.8871   24.5911 H   0  0  0  0  0  0  0  0  0  0  0  0
  1  2  1  0  0  0  0
  1 15  1  0  0  0  0
  1 16  1  0  0  0  0
  2  3  1  0  0  0  0
  2 17  1  0  0  0  0
  3  4  1  0  0  0  0
  3  5  2  0  0  0  0
  4 18  1  0  0  0  0
  4 19  1  0  0  0  0
  5  6  1  0  0  0  0
  6  7  1  0  0  0  0
  6  9  1  0  0  0  0
  6 20  1  6  0  0  0
  7  8  1  0  0  0  0
  7 21  1  0  0  0  0
  7 22  1  0  0  0  0
  8 23  1  0  0  0  0
  9 10  2  0  0  0  0
  9 14  1  0  0  0  0
 10 11  1  0  0  0  0
 10 24  1  0  0  0  0
 11 12  2  0  0  0  0
 11 25  1  0  0  0  0
 12 13  1  0  0  0  0
 12 26  1  0  0  0  0
 13 14  2  0  0  0  0
 13 27  1  0  0  0  0
 14 28  1  0  0  0  0
M  END
>  <CHROM.1>
-82.50942500,57.40221394,87.85494834,12.58255232,1.99208156,22.77894966,-1.60786159
0.48208381,0.10550986

>  <Name>
NNC(N)=NC(CO)c1ccccc1

>  <RI>
0

>  <Rbt.Current_Directory>
/home/gse84885/github/im/docking-validation/targets/mpro/expts/jackall/work/Mpro-x0072_0/work/87/6c62c7d517a38589cbca672746211b

>  <Rbt.Executable>
rbdock ($Id: //depot/dev/client3/rdock/2013.1/src/exe/rbdock.cxx#4 $)

>  <Rbt.Library>
libRbt.so (2013.1, Build901 2013/11/27)

>  <Rbt.Parameter_File>
/rDock_2013.1/data/scripts/dock.prm

>  <Rbt.Receptor>
docking-global.prm

>  <SCORE>
-8.66549

>  <SCORE.INTER>
-7.85434

>  <SCORE.INTER.CONST>
1

>  <SCORE.INTER.POLAR>
0

>  <SCORE.INTER.REPUL>
0.018346

>  <SCORE.INTER.ROT>
3

>  <SCORE.INTER.VDW>
-16.3461

>  <SCORE.INTER.norm>
-0.561025

>  <SCORE.INTRA>
-0.811149

>  <SCORE.INTRA.DIHEDRAL>
-0.574476

>  <SCORE.INTRA.DIHEDRAL.0>
3.02372

>  <SCORE.INTRA.POLAR>
0

>  <SCORE.INTRA.POLAR.0>
0

>  <SCORE.INTRA.REPUL>
0

>  <SCORE.INTRA.REPUL.0>
0

>  <SCORE.INTRA.VDW>
-0.523911

>  <SCORE.INTRA.VDW.0>
-0.793817

>  <SCORE.INTRA.norm>
-0.0579392

>  <SCORE.RESTR>
0

>  <SCORE.RESTR.CAVITY>
0

>  <SCORE.RESTR.norm>
0

>  <SCORE.SYSTEM>
0

>  <SCORE.SYSTEM.CONST>
0

>  <SCORE.SYSTEM.DIHEDRAL>
0

>  <SCORE.SYSTEM.norm>
0

>  <SCORE.heavy>
14

>  <SCORE.norm>
-0.618964

>  <XChemDeepScore>
0.988625

>  <SuCOS_Max_Score>
0.36178825547609056

>  <SuCOS_Max_FeatureMap_Score>
0.15928783405462824

>  <SuCOS_Max_Protrude_Score>
0.56428867689755291

>  <SuCOS_Max_Index>
1

>  <SuCOS_Cum_Score>
1.5134558865342069

>  <SuCOS_Cum_FeatureMap_Score>
0.23153382805595391

>  <SuCOS_Cum_Protrude_Score>
2.7953779450124605

$$$$
