@<TRIPOS>MOLECULE
hits.sdf
11 11 1 0 0
SMALL
NO_CHARGES


@<TRIPOS>ATOM
      1 C1          9.4186   -2.5851   27.6277 C.3       1 UNK    0.0000
      2 C2          9.4872   -2.8899   26.1388 C.3       1 UNK    0.0000
      3 N1         10.5767   -2.1148   25.5845 N.pl3     1 UNK    0.0000
      4 C3         11.3255   -2.5208   24.4170 C.ar      1 UNK    0.0000
      5 C4         10.8975   -3.5504   23.5878 C.ar      1 UNK    0.0000
      6 C5         11.6467   -3.8877   22.4706 C.ar      1 UNK    0.0000
      7 C6         12.8128   -3.1752   22.2134 C.ar      1 UNK    0.0000
      8 C7         13.6860   -3.5084   21.0103 C.1       1 UNK    0.0000
      9 N2         14.3437   -3.7417   20.1099 N.1       1 UNK    0.0000
     10 C8         13.1744   -2.1587   23.0868 C.ar      1 UNK    0.0000
     11 N3         12.4329   -1.8596   24.1480 N.ar      1 UNK    0.0000
@<TRIPOS>BOND
     1    1    2 1
     2    2    3 1
     3    3    4 1
     4    4    5 ar
     5    4   11 ar
     6    5    6 ar
     7   11   10 ar
     8    6    7 ar
     9    7    8 1
    10    7   10 ar
    11    8    9 3
@<TRIPOS>SUBSTRUCTURE
     1 UNK     1 RESIDUE           4 A     UNK     0 ROOT
