
     RDKit          3D

 13 13  0  0  0  0  0  0  0  0999 V2000
    9.8790   -5.4960   26.1730 C   0  0  0  0  0  0  0  0  0  0  0  0
    8.4790   -4.3410   26.0680 S   0  0  1  0  0  0  0  0  0  0  0  0
    7.1910   -5.0190   26.2290 O   0  0  0  0  0  0  0  0  0  0  0  0
    8.4340   -3.4430   27.2120 O   0  0  0  0  0  0  0  0  0  0  0  0
    8.4960   -3.4980   24.5920 N   0  0  0  0  0  0  0  0  0  0  0  0
    9.7540   -3.0340   24.0580 C   0  0  0  0  0  0  0  0  0  0  0  0
    9.5680   -1.8260   23.1510 C   0  0  0  0  0  0  0  0  0  0  0  0
   10.8760   -1.0500   23.1440 C   0  0  0  0  0  0  0  0  0  0  0  0
   11.9060   -1.4610   22.3160 C   0  0  0  0  0  0  0  0  0  0  0  0
   13.1060   -0.7790   22.3180 C   0  0  0  0  0  0  0  0  0  0  0  0
   13.2770    0.3180   23.1500 C   0  0  0  0  0  0  0  0  0  0  0  0
   12.2420    0.7320   23.9810 C   0  0  0  0  0  0  0  0  0  0  0  0
   11.0390    0.0410   23.9830 C   0  0  0  0  0  0  0  0  0  0  0  0
  2  1  1  1
  2  3  2  0
  2  4  2  0
  2  5  1  0
  5  6  1  0
  6  7  1  0
  7  8  1  0
  8  9  2  0
  8 13  1  0
  9 10  1  0
 13 12  2  0
 10 11  2  0
 11 12  1  0
M  END
$$$$

     RDKit          3D

 16 17  0  0  0  0  0  0  0  0999 V2000
    9.5220    5.3850   22.9640 C   0  0  0  0  0  0  0  0  0  0  0  0
   10.6910    5.7360   23.8810 C   0  0  0  0  0  0  0  0  0  0  0  0
   10.4660    6.3160   24.8740 O   0  0  0  0  0  0  0  0  0  0  0  0
   12.0740    5.3880   23.6220 N   0  0  0  0  0  0  0  0  0  0  0  0
   12.4920    4.6500   22.4510 C   0  0  0  0  0  0  0  0  0  0  0  0
   13.1760    3.3750   22.9180 C   0  0  0  0  0  0  0  0  0  0  0  0
   12.2100    2.3170   23.4570 C   0  0  0  0  0  0  0  0  0  0  0  0
   11.1390    2.4870   24.3210 C   0  0  0  0  0  0  0  0  0  0  0  0
   10.5720    1.3010   24.5250 N   0  0  0  0  0  0  0  0  0  0  0  0
   11.2360    0.3380   23.8210 C   0  0  0  0  0  0  0  0  0  0  0  0
   11.0300   -1.0620   23.6930 C   0  0  0  0  0  0  0  0  0  0  0  0
   11.8800   -1.8120   22.8830 C   0  0  0  0  0  0  0  0  0  0  0  0
   12.9290   -1.1860   22.1980 C   0  0  0  0  0  0  0  0  0  0  0  0
   13.1280    0.1820   22.3230 C   0  0  0  0  0  0  0  0  0  0  0  0
   12.2670    0.9460   23.1470 C   0  0  0  0  0  0  0  0  0  0  0  0
   13.7690   -1.8980   21.4040 F   0  0  0  0  0  0  0  0  0  0  0  0
  1  2  1  0
  2  3  2  0
  2  4  1  0
  4  5  1  0
  5  6  1  0
  6  7  1  0
  7  8  2  0
  7 15  1  0
  8  9  1  0
 15 10  2  0
 15 14  1  0
  9 10  1  0
 10 11  1  0
 11 12  2  0
 12 13  1  0
 13 14  2  0
 13 16  1  0
M  END
$$$$

     RDKit          3D

 14 14  0  0  0  0  0  0  0  0999 V2000
   11.6590   -1.5020   21.8060 C   0  0  0  0  0  0  0  0  0  0  0  0
   12.3210   -1.6370   23.0350 O   0  0  0  0  0  0  0  0  0  0  0  0
   13.0730   -0.5250   23.4440 C   0  0  0  0  0  0  0  0  0  0  0  0
   14.2180   -0.6570   23.6840 O   0  0  0  0  0  0  0  0  0  0  0  0
   12.4200    0.8490   23.5710 C   0  0  0  0  0  0  0  0  0  0  0  0
   11.1700    0.9830   24.1680 C   0  0  0  0  0  0  0  0  0  0  0  0
   10.5880    2.2400   24.2640 C   0  0  0  0  0  0  0  0  0  0  0  0
   11.2700    3.3430   23.7590 C   0  0  0  0  0  0  0  0  0  0  0  0
   12.5120    3.2070   23.1590 C   0  0  0  0  0  0  0  0  0  0  0  0
   13.0850    1.9560   23.0650 C   0  0  0  0  0  0  0  0  0  0  0  0
   10.5430    4.9880   23.8640 S   0  0  2  0  0  0  0  0  0  0  0  0
   11.5270    6.0050   23.4810 O   0  0  0  0  0  0  0  0  0  0  0  0
   10.2430    5.3260   25.2570 O   0  0  0  0  0  0  0  0  0  0  0  0
    9.1560    5.0760   22.8630 N   0  0  0  0  0  0  0  0  0  0  0  0
  1  2  1  0
  2  3  1  0
  3  4  2  0
  3  5  1  0
  5  6  2  0
  5 10  1  0
  6  7  1  0
 10  9  2  0
  7  8  2  0
  8  9  1  0
  8 11  1  0
 11 12  2  0
 11 13  2  0
 11 14  1  6
M  END
$$$$

     RDKit          3D

 15 16  0  0  0  0  0  0  0  0999 V2000
    9.9350   -0.5190   25.0990 C   0  0  0  0  0  0  0  0  0  0  0  0
   11.1510   -0.4990   24.3140 N   0  0  0  0  0  0  0  0  0  0  0  0
   11.4740   -1.6890   23.5780 C   0  0  0  0  0  0  0  0  0  0  0  0
   12.6970   -1.6430   22.6890 C   0  0  0  0  0  0  0  0  0  0  0  0
   13.6710   -0.5150   22.9800 C   0  0  0  0  0  0  0  0  0  0  0  0
   12.9220    0.8320   23.2050 C   0  0  0  0  0  0  0  0  0  0  0  0
   13.4770    2.0460   22.7480 C   0  0  0  0  0  0  0  0  0  0  0  0
   12.7890    3.2420   22.9510 C   0  0  0  0  0  0  0  0  0  0  0  0
   11.5420    3.2030   23.6130 C   0  0  0  0  0  0  0  0  0  0  0  0
   10.9850    2.0060   24.0670 C   0  0  0  0  0  0  0  0  0  0  0  0
   11.6830    0.7970   23.8590 C   0  0  0  0  0  0  0  0  0  0  0  0
   10.6120    4.7160   23.9110 S   0  0  2  0  0  0  0  0  0  0  0  0
   10.1620    4.6860   25.3040 O   0  0  0  0  0  0  0  0  0  0  0  0
    9.3350    4.6900   23.1840 O   0  0  0  0  0  0  0  0  0  0  0  0
   11.5660    6.0820   23.5380 N   0  0  0  0  0  0  0  0  0  0  0  0
  1  2  1  0
  2  3  1  0
  2 11  1  0
  3  4  1  0
 11  6  2  0
 11 10  1  0
  4  5  1  0
  5  6  1  0
  6  7  1  0
  7  8  2  0
  8  9  1  0
  9 10  2  0
  9 12  1  0
 12 13  2  0
 12 14  2  0
 12 15  1  1
M  END
$$$$

     RDKit          3D

 11 11  0  0  0  0  0  0  0  0999 V2000
    8.9400   -0.0330   27.7960 C   0  0  0  0  0  0  0  0  0  0  0  0
    9.0630   -0.5050   26.3550 C   0  0  0  0  0  0  0  0  0  0  0  0
   10.1320    0.2510   25.7380 N   0  0  0  0  0  0  0  0  0  0  0  0
   10.9300   -0.2520   24.6430 C   0  0  0  0  0  0  0  0  0  0  0  0
   10.5710   -1.3900   23.9310 C   0  0  0  0  0  0  0  0  0  0  0  0
   11.3650   -1.8190   22.8780 C   0  0  0  0  0  0  0  0  0  0  0  0
   12.5050   -1.0870   22.5650 C   0  0  0  0  0  0  0  0  0  0  0  0
   13.4250   -1.5160   21.4290 C   0  0  0  0  0  0  0  0  0  0  0  0
   14.1170   -1.8210   20.5770 N   0  0  0  0  0  0  0  0  0  0  0  0
   12.7970    0.0400   23.3210 C   0  0  0  0  0  0  0  0  0  0  0  0
   12.0140    0.4250   24.3230 N   0  0  0  0  0  0  0  0  0  0  0  0
  1  2  1  0
  2  3  1  0
  3  4  1  0
  4  5  2  0
  4 11  1  0
  5  6  1  0
 11 10  2  0
  6  7  2  0
  7  8  1  0
  7 10  1  0
  8  9  3  0
M  END
$$$$

     RDKit          3D

 16 17  0  0  0  0  0  0  0  0999 V2000
    9.3500    0.5820   20.9010 O   0  0  0  0  0  0  0  0  0  0  0  0
    8.8190   -0.3940   21.3240 C   0  0  0  0  0  0  0  0  0  0  0  0
    9.4750   -1.1740   22.3370 N   0  0  0  0  0  0  0  0  0  0  0  0
   10.7480   -0.7020   22.7950 C   0  0  0  0  0  0  0  0  0  0  0  0
   11.9040   -1.0710   22.1280 C   0  0  0  0  0  0  0  0  0  0  0  0
   13.1270   -0.5950   22.5680 C   0  0  0  0  0  0  0  0  0  0  0  0
   13.1750    0.2530   23.6640 C   0  0  0  0  0  0  0  0  0  0  0  0
   12.0060    0.6220   24.3230 C   0  0  0  0  0  0  0  0  0  0  0  0
   10.7860    0.1450   23.8880 C   0  0  0  0  0  0  0  0  0  0  0  0
    7.5250   -0.8400   20.8540 N   0  0  0  0  0  0  0  0  0  0  0  0
    6.7990   -0.1210   19.8290 C   0  0  0  0  0  0  0  0  0  0  0  0
    5.5920    0.4820   20.1630 C   0  0  0  0  0  0  0  0  0  0  0  0
    4.9180    1.1640   19.1550 C   0  0  0  0  0  0  0  0  0  0  0  0
    5.4700    1.1840   17.8770 C   0  0  0  0  0  0  0  0  0  0  0  0
    6.6140    0.5890   17.6110 N   0  0  0  0  0  0  0  0  0  0  0  0
    7.2940   -0.0560   18.5330 C   0  0  0  0  0  0  0  0  0  0  0  0
  1  2  2  0
  2  3  1  0
  2 10  1  0
  3  4  1  0
 10 11  1  0
  4  5  2  0
  4  9  1  0
  5  6  1  0
  9  8  2  0
  6  7  2  0
  7  8  1  0
 11 12  2  0
 11 16  1  0
 12 13  1  0
 16 15  2  0
 13 14  2  0
 14 15  1  0
M  END
$$$$

     RDKit          3D

 16 17  0  0  0  0  0  0  0  0999 V2000
    9.3830    0.8760   21.0230 O   0  0  0  0  0  0  0  0  0  0  0  0
    8.8150    0.1360   21.7590 C   0  0  0  0  0  0  0  0  0  0  0  0
    9.3930   -0.3170   23.0940 C   0  0  0  0  0  0  0  0  0  0  0  0
   10.9190   -0.3100   23.0710 C   0  0  2  0  0  0  0  0  0  0  0  0
   11.4420   -1.3750   22.1110 C   0  0  0  0  0  0  0  0  0  0  0  0
   12.9510   -1.5510   22.2110 C   0  0  0  0  0  0  0  0  0  0  0  0
   13.4350   -1.7070   23.6420 C   0  0  0  0  0  0  0  0  0  0  0  0
   12.9210   -0.5420   24.4710 C   0  0  0  0  0  0  0  0  0  0  0  0
   11.4050   -0.5680   24.4890 C   0  0  0  0  0  0  0  0  0  0  0  0
    7.5350   -0.3690   21.3780 N   0  0  0  0  0  0  0  0  0  0  0  0
    6.9680    0.0670   20.1430 C   0  0  0  0  0  0  0  0  0  0  0  0
    5.7290    0.6970   20.1920 C   0  0  0  0  0  0  0  0  0  0  0  0
    5.2090    1.1130   18.9670 C   0  0  0  0  0  0  0  0  0  0  0  0
    5.9450    0.8930   17.8140 C   0  0  0  0  0  0  0  0  0  0  0  0
    7.1270    0.2980   17.8450 N   0  0  0  0  0  0  0  0  0  0  0  0
    7.6630   -0.1160   18.9630 C   0  0  0  0  0  0  0  0  0  0  0  0
  1  2  2  0
  2  3  1  0
  2 10  1  0
  4  3  1  1
 10 11  1  0
  4  5  1  0
  4  9  1  0
  5  6  1  0
  9  8  1  0
  6  7  1  0
  7  8  1  0
 11 12  2  0
 11 16  1  0
 12 13  1  0
 16 15  2  0
 13 14  2  0
 14 15  1  0
M  END
$$$$
