COCCN(C)C(=O)c1ccc(S(N)(=O)=O)cc1
 OpenBabel03122003513D

 18 18  0  0  0  0  0  0  0  0999 V2000
   13.1733    4.5051   22.6925 C   0  0  0  0  0  0  0  0  0  0  0  0
   12.2584    3.5060   23.1186 O   0  0  0  0  0  0  0  0  0  0  0  0
   12.9239    2.2593   23.3622 C   0  0  0  0  0  0  0  0  0  0  0  0
   11.8772    1.2052   23.7344 C   0  0  0  0  0  0  0  0  0  0  0  0
   11.0078    0.7987   22.6259 N   0  0  0  0  0  0  0  0  0  0  0  0
   11.4619   -0.3176   21.8079 C   0  0  0  0  0  0  0  0  0  0  0  0
    9.8971    1.6088   22.3407 C   0  0  0  0  0  0  0  0  0  0  0  0
    9.6911    2.6518   22.9625 O   0  0  0  0  0  0  0  0  0  0  0  0
    8.9240    1.2430   21.2704 C   0  0  0  0  0  0  0  0  0  0  0  0
    9.1485    0.2007   20.3613 C   0  0  0  0  0  0  0  0  0  0  0  0
    8.2195   -0.0712   19.3541 C   0  0  0  0  0  0  0  0  0  0  0  0
    7.0290    0.6546   19.3045 C   0  0  0  0  0  0  0  0  0  0  0  0
    5.8520    0.2613   17.9914 S   0  0  0  0  0  0  0  0  0  0  0  0
    4.4103    0.5291   18.6068 N   0  0  0  0  0  0  0  0  0  0  0  0
    6.2159    1.1824   16.9228 O   0  0  0  0  0  0  0  0  0  0  0  0
    6.1534   -1.1446   17.7317 O   0  0  0  0  0  0  0  0  0  0  0  0
    6.7517    1.6468   20.2446 C   0  0  0  0  0  0  0  0  0  0  0  0
    7.7025    1.9417   21.2262 C   0  0  0  0  0  0  0  0  0  0  0  0
  1  2  1  0  0  0  0
  2  3  1  0  0  0  0
  3  4  1  0  0  0  0
  4  5  1  0  0  0  0
  5  6  1  0  0  0  0
  5  7  1  0  0  0  0
  7  8  2  0  0  0  0
  7  9  1  0  0  0  0
  9 10  2  0  0  0  0
  9 18  1  0  0  0  0
 10 11  1  0  0  0  0
 11 12  2  0  0  0  0
 12 13  1  0  0  0  0
 12 17  1  0  0  0  0
 13 14  1  0  0  0  0
 13 15  2  0  0  0  0
 13 16  2  0  0  0  0
 17 18  2  0  0  0  0
M  END
>  <CHROM.1>
-176.60179488,69.96167964,89.39694818,-9.69349915,147.85600438,8.86299974
1.21410541,20.67447308,0.41516250,-0.60796721,0.23946995

>  <Name>
COCCN(C)C(=O)c1ccc(S(N)(=O)=O)cc1

>  <RI>
0

>  <Rbt.Current_Directory>
/home/gse84885/github/im/docking-validation/targets/mpro/expts/jackall/work/Mpro-x0072_0/work/60/92a408fda7e1d67ebdf2a5b4113914

>  <Rbt.Executable>
rbdock ($Id: //depot/dev/client3/rdock/2013.1/src/exe/rbdock.cxx#4 $)

>  <Rbt.Library>
libRbt.so (2013.1, Build901 2013/11/27)

>  <Rbt.Parameter_File>
/rDock_2013.1/data/scripts/dock.prm

>  <Rbt.Receptor>
docking-global.prm

>  <SCORE>
-9.05712

>  <SCORE.INTER>
-9.62743

>  <SCORE.INTER.CONST>
1

>  <SCORE.INTER.POLAR>
0

>  <SCORE.INTER.REPUL>
0.00119532

>  <SCORE.INTER.ROT>
5

>  <SCORE.INTER.VDW>
-20.0334

>  <SCORE.INTER.norm>
-0.534857

>  <SCORE.INTRA>
0.570314

>  <SCORE.INTRA.DIHEDRAL>
-3.71277

>  <SCORE.INTRA.DIHEDRAL.0>
6.82944

>  <SCORE.INTRA.POLAR>
0

>  <SCORE.INTRA.POLAR.0>
0

>  <SCORE.INTRA.REPUL>
0

>  <SCORE.INTRA.REPUL.0>
0

>  <SCORE.INTRA.VDW>
2.4267

>  <SCORE.INTRA.VDW.0>
-0.54771

>  <SCORE.INTRA.norm>
0.0316841

>  <SCORE.RESTR>
0

>  <SCORE.RESTR.CAVITY>
0

>  <SCORE.RESTR.norm>
0

>  <SCORE.SYSTEM>
0

>  <SCORE.SYSTEM.CONST>
0

>  <SCORE.SYSTEM.DIHEDRAL>
0

>  <SCORE.SYSTEM.norm>
0

>  <SCORE.heavy>
18

>  <SCORE.norm>
-0.503173

>  <XChemDeepScore>
0.972262

>  <SuCOS_Max_Score>
0.33467360832403448

>  <SuCOS_Max_FeatureMap_Score>
0.059545339692907283

>  <SuCOS_Max_Protrude_Score>
0.60980187695516164

>  <SuCOS_Max_Index>
5

>  <SuCOS_Cum_Score>
1.4308037381418792

>  <SuCOS_Cum_FeatureMap_Score>
0.084623148761681311

>  <SuCOS_Cum_Protrude_Score>
2.7769843275220776

$$$$
