COC(C=CC(=O)C(=O)O)Cc1ccccc1
 OpenBabel03122003533D

 31 31  0  0  0  0  0  0  0  0999 V2000
    7.0961   -0.4097   21.4534 C   0  0  0  0  0  0  0  0  0  0  0  0
    7.6063   -1.6839   21.8327 O   0  0  0  0  0  0  0  0  0  0  0  0
    8.9065   -1.6149   22.4440 C   0  0  1  0  0  0  0  0  0  0  0  0
    9.1949   -2.9324   23.1116 C   0  0  0  0  0  0  0  0  0  0  0  0
    9.2834   -3.1164   24.4386 C   0  0  0  0  0  0  0  0  0  0  0  0
    9.5255   -4.4823   24.9926 C   0  0  0  0  0  0  0  0  0  0  0  0
    9.5758   -5.4841   24.2789 O   0  0  0  0  0  0  0  0  0  0  0  0
    9.7150   -4.6505   26.5163 C   0  0  0  0  0  0  0  0  0  0  0  0
    9.3477   -3.6570   27.2254 O   0  0  0  0  0  0  0  0  0  0  0  0
   10.2155   -5.7418   26.9405 O   0  0  0  0  0  0  0  0  0  0  0  0
    9.9590   -1.3611   21.3410 C   0  0  0  0  0  0  0  0  0  0  0  0
   11.2981   -0.8844   21.8665 C   0  0  0  0  0  0  0  0  0  0  0  0
   12.4648   -1.6289   21.6518 C   0  0  0  0  0  0  0  0  0  0  0  0
   13.6870   -1.1920   22.1703 C   0  0  0  0  0  0  0  0  0  0  0  0
   13.7546   -0.0081   22.9042 C   0  0  0  0  0  0  0  0  0  0  0  0
   12.6026    0.7470   23.1110 C   0  0  0  0  0  0  0  0  0  0  0  0
   11.3813    0.3105   22.5962 C   0  0  0  0  0  0  0  0  0  0  0  0
    6.1311   -0.5303   21.0071 H   0  0  0  0  0  0  0  0  0  0  0  0
    7.7606    0.0452   20.7488 H   0  0  0  0  0  0  0  0  0  0  0  0
    7.0133    0.2135   22.3192 H   0  0  0  0  0  0  0  0  0  0  0  0
    8.9390   -0.8260   23.1662 H   0  0  0  0  0  0  0  0  0  0  0  0
    9.3350   -3.7552   22.5046 H   0  0  0  0  0  0  0  0  0  0  0  0
    9.1839   -2.3121   25.0775 H   0  0  0  0  0  0  0  0  0  0  0  0
   10.4541   -6.4148   26.3338 H   0  0  0  0  0  0  0  0  0  0  0  0
    9.5751   -0.6177   20.6740 H   0  0  0  0  0  0  0  0  0  0  0  0
   10.1323   -2.2990   20.8560 H   0  0  0  0  0  0  0  0  0  0  0  0
   12.4218   -2.5048   21.1078 H   0  0  0  0  0  0  0  0  0  0  0  0
   14.5420   -1.7472   22.0096 H   0  0  0  0  0  0  0  0  0  0  0  0
   14.6566    0.3080   23.2934 H   0  0  0  0  0  0  0  0  0  0  0  0
   12.6523    1.6289   23.6447 H   0  0  0  0  0  0  0  0  0  0  0  0
   10.5304    0.8727   22.7540 H   0  0  0  0  0  0  0  0  0  0  0  0
  1  2  1  0  0  0  0
  1 18  1  0  0  0  0
  1 19  1  0  0  0  0
  1 20  1  0  0  0  0
  2  3  1  0  0  0  0
  3  4  1  0  0  0  0
  3 11  1  0  0  0  0
  3 21  1  1  0  0  0
  4  5  2  0  0  0  0
  4 22  1  0  0  0  0
  5  6  1  0  0  0  0
  5 23  1  0  0  0  0
  6  7  2  0  0  0  0
  6  8  1  0  0  0  0
  8  9  2  0  0  0  0
  8 10  1  0  0  0  0
 10 24  1  0  0  0  0
 11 12  1  0  0  0  0
 11 25  1  0  0  0  0
 11 26  1  0  0  0  0
 12 13  2  0  0  0  0
 12 17  1  0  0  0  0
 13 14  1  0  0  0  0
 13 27  1  0  0  0  0
 14 15  2  0  0  0  0
 14 28  1  0  0  0  0
 15 16  1  0  0  0  0
 15 29  1  0  0  0  0
 16 17  2  0  0  0  0
 16 30  1  0  0  0  0
 17 31  1  0  0  0  0
M  END
>  <CHROM.1>
165.79847157,-111.92554901,163.75820143,-4.20886729,15.54730803,119.03699006
10.24415700,-2.28716933,23.50590000,1.23715291,-0.23762559,-0.81730030

>  <Name>
COC(C=CC(=O)C(=O)O)Cc1ccccc1

>  <RI>
0

>  <Rbt.Current_Directory>
/home/gse84885/github/im/docking-validation/targets/mpro/expts/jackall/work/Mpro-x0072_0/work/8c/170de04aba41717a842d964b09b1cd

>  <Rbt.Executable>
rbdock ($Id: //depot/dev/client3/rdock/2013.1/src/exe/rbdock.cxx#4 $)

>  <Rbt.Library>
libRbt.so (2013.1, Build901 2013/11/27)

>  <Rbt.Parameter_File>
/rDock_2013.1/data/scripts/dock.prm

>  <Rbt.Receptor>
docking-global.prm

>  <SCORE>
-4.06455

>  <SCORE.INTER>
-5.02801

>  <SCORE.INTER.CONST>
1

>  <SCORE.INTER.POLAR>
0

>  <SCORE.INTER.REPUL>
0.00224854

>  <SCORE.INTER.ROT>
6

>  <SCORE.INTER.VDW>
-16.4392

>  <SCORE.INTER.norm>
-0.295765

>  <SCORE.INTRA>
0.963459

>  <SCORE.INTRA.DIHEDRAL>
2.54436

>  <SCORE.INTRA.DIHEDRAL.0>
1.03911

>  <SCORE.INTRA.POLAR>
0

>  <SCORE.INTRA.POLAR.0>
0

>  <SCORE.INTRA.REPUL>
0

>  <SCORE.INTRA.REPUL.0>
0

>  <SCORE.INTRA.VDW>
-0.308722

>  <SCORE.INTRA.VDW.0>
0.117392

>  <SCORE.INTRA.norm>
0.056674

>  <SCORE.RESTR>
0

>  <SCORE.RESTR.CAVITY>
0

>  <SCORE.RESTR.norm>
0

>  <SCORE.SYSTEM>
0

>  <SCORE.SYSTEM.CONST>
0

>  <SCORE.SYSTEM.DIHEDRAL>
0

>  <SCORE.SYSTEM.norm>
0

>  <SCORE.heavy>
17

>  <SCORE.norm>
-0.239091

>  <XChemDeepScore>
0.982175

>  <SuCOS_Max_Score>
0.49129306880975454

>  <SuCOS_Max_FeatureMap_Score>
0.25797219283710382

>  <SuCOS_Max_Protrude_Score>
0.72461394478240526

>  <SuCOS_Max_Index>
0

>  <SuCOS_Cum_Score>
1.8254438802955892

>  <SuCOS_Cum_FeatureMap_Score>
0.58587327910106679

>  <SuCOS_Cum_Protrude_Score>
3.0650144814901124

$$$$
