NC(CCCOCc1ccccc1)CCc1cccnc1
 OpenBabel03122003533D

 45 46  0  0  0  0  0  0  0  0999 V2000
   13.8898    0.1007   23.5575 N   0  0  0  0  0  0  0  0  0  0  0  0
   12.8982    1.0032   22.8890 C   0  0  1  0  0  0  0  0  0  0  0  0
   11.5652    0.2460   22.8684 C   0  0  0  0  0  0  0  0  0  0  0  0
   11.6196   -1.0987   22.1300 C   0  0  0  0  0  0  0  0  0  0  0  0
   10.2481   -1.7689   22.0977 C   0  0  0  0  0  0  0  0  0  0  0  0
    9.4394   -1.0385   21.1824 O   0  0  0  0  0  0  0  0  0  0  0  0
    8.0724   -1.4465   21.2300 C   0  0  0  0  0  0  0  0  0  0  0  0
    7.3583   -0.8355   20.0553 C   0  0  0  0  0  0  0  0  0  0  0  0
    7.9986    0.1250   19.2573 C   0  0  0  0  0  0  0  0  0  0  0  0
    7.3477    0.6812   18.1559 C   0  0  0  0  0  0  0  0  0  0  0  0
    6.0515    0.2829   17.8385 C   0  0  0  0  0  0  0  0  0  0  0  0
    5.4037   -0.6702   18.6235 C   0  0  0  0  0  0  0  0  0  0  0  0
    6.0529   -1.2276   19.7265 C   0  0  0  0  0  0  0  0  0  0  0  0
   12.8246    2.3297   23.6518 C   0  0  0  0  0  0  0  0  0  0  0  0
   12.1096    3.4478   22.8860 C   0  0  0  0  0  0  0  0  0  0  0  0
   11.8747    4.6294   23.7787 C   0  0  0  0  0  0  0  0  0  0  0  0
   12.9349    5.2764   24.4197 C   0  0  0  0  0  0  0  0  0  0  0  0
   12.6785    6.4002   25.1960 C   0  0  0  0  0  0  0  0  0  0  0  0
   11.3714    6.8447   25.3043 C   0  0  0  0  0  0  0  0  0  0  0  0
   10.3266    6.2463   24.6958 N   0  0  0  0  0  0  0  0  0  0  0  0
   10.5992    5.1560   23.9515 C   0  0  0  0  0  0  0  0  0  0  0  0
   13.9404   -0.7833   23.0511 H   0  0  0  0  0  0  0  0  0  0  0  0
   13.5963   -0.0743   24.5186 H   0  0  0  0  0  0  0  0  0  0  0  0
   13.1738    1.2516   21.8854 H   0  0  0  0  0  0  0  0  0  0  0  0
   10.8353    0.8637   22.3883 H   0  0  0  0  0  0  0  0  0  0  0  0
   11.3178    0.0291   23.8866 H   0  0  0  0  0  0  0  0  0  0  0  0
   12.3112   -1.7437   22.6307 H   0  0  0  0  0  0  0  0  0  0  0  0
   11.9317   -0.9187   21.1225 H   0  0  0  0  0  0  0  0  0  0  0  0
    9.8076   -1.7477   23.0726 H   0  0  0  0  0  0  0  0  0  0  0  0
   10.3340   -2.7912   21.7937 H   0  0  0  0  0  0  0  0  0  0  0  0
    7.6251   -1.1087   22.1415 H   0  0  0  0  0  0  0  0  0  0  0  0
    8.0036   -2.5135   21.1902 H   0  0  0  0  0  0  0  0  0  0  0  0
    8.9596    0.4226   19.4873 H   0  0  0  0  0  0  0  0  0  0  0  0
    7.8268    1.3879   17.5762 H   0  0  0  0  0  0  0  0  0  0  0  0
    5.5706    0.6930   17.0226 H   0  0  0  0  0  0  0  0  0  0  0  0
    4.4427   -0.9640   18.3887 H   0  0  0  0  0  0  0  0  0  0  0  0
    5.5688   -1.9329   20.3037 H   0  0  0  0  0  0  0  0  0  0  0  0
   13.8226    2.6519   23.8644 H   0  0  0  0  0  0  0  0  0  0  0  0
   12.2542    2.1467   24.5384 H   0  0  0  0  0  0  0  0  0  0  0  0
   11.1689    3.0840   22.5288 H   0  0  0  0  0  0  0  0  0  0  0  0
   12.7239    3.7518   22.0644 H   0  0  0  0  0  0  0  0  0  0  0  0
   13.8991    4.9229   24.3175 H   0  0  0  0  0  0  0  0  0  0  0  0
   13.4450    6.8925   25.6809 H   0  0  0  0  0  0  0  0  0  0  0  0
   11.1864    7.6795   25.8822 H   0  0  0  0  0  0  0  0  0  0  0  0
    9.8124    4.6826   23.4806 H   0  0  0  0  0  0  0  0  0  0  0  0
  1 22  1  0  0  0  0
  1 23  1  0  0  0  0
  2  1  1  0  0  0  0
  2  3  1  0  0  0  0
  2 14  1  0  0  0  0
  2 24  1  6  0  0  0
  3  4  1  0  0  0  0
  3 25  1  0  0  0  0
  3 26  1  0  0  0  0
  4  5  1  0  0  0  0
  4 27  1  0  0  0  0
  4 28  1  0  0  0  0
  5  6  1  0  0  0  0
  5 29  1  0  0  0  0
  5 30  1  0  0  0  0
  6  7  1  0  0  0  0
  7  8  1  0  0  0  0
  7 31  1  0  0  0  0
  7 32  1  0  0  0  0
  8  9  2  0  0  0  0
  8 13  1  0  0  0  0
  9 10  1  0  0  0  0
  9 33  1  0  0  0  0
 10 11  2  0  0  0  0
 10 34  1  0  0  0  0
 11 12  1  0  0  0  0
 11 35  1  0  0  0  0
 12 13  2  0  0  0  0
 12 36  1  0  0  0  0
 13 37  1  0  0  0  0
 14 15  1  0  0  0  0
 14 38  1  0  0  0  0
 14 39  1  0  0  0  0
 15 16  1  0  0  0  0
 15 40  1  0  0  0  0
 15 41  1  0  0  0  0
 16 17  2  0  0  0  0
 16 21  1  0  0  0  0
 17 18  1  0  0  0  0
 17 42  1  0  0  0  0
 18 19  2  0  0  0  0
 18 43  1  0  0  0  0
 19 20  1  0  0  0  0
 19 44  1  0  0  0  0
 20 21  2  0  0  0  0
 21 45  1  0  0  0  0
M  END
>  <CHROM.1>
-58.87211313,166.05412795,-177.61073440,72.40898813,-170.70672678,-168.62311410
-9.03055302,170.42661320,57.73503222,10.15740931,1.60282823,22.08602109,-0.87259169
0.55283398,-2.84209023

>  <Name>
NC(CCCOCc1ccccc1)CCc1cccnc1

>  <RI>
0

>  <Rbt.Current_Directory>
/home/gse84885/github/im/docking-validation/targets/mpro/expts/jackall/work/Mpro-x0072_0/work/48/6abf487a037d8796156767a3f908e6

>  <Rbt.Executable>
rbdock ($Id: //depot/dev/client3/rdock/2013.1/src/exe/rbdock.cxx#4 $)

>  <Rbt.Library>
libRbt.so (2013.1, Build901 2013/11/27)

>  <Rbt.Parameter_File>
/rDock_2013.1/data/scripts/dock.prm

>  <Rbt.Receptor>
docking-global.prm

>  <SCORE>
-8.91178

>  <SCORE.INTER>
-10.7904

>  <SCORE.INTER.CONST>
1

>  <SCORE.INTER.POLAR>
0

>  <SCORE.INTER.REPUL>
0

>  <SCORE.INTER.ROT>
9

>  <SCORE.INTER.VDW>
-25.1904

>  <SCORE.INTER.norm>
-0.513829

>  <SCORE.INTRA>
1.87863

>  <SCORE.INTRA.DIHEDRAL>
2.60876

>  <SCORE.INTRA.DIHEDRAL.0>
1.56567

>  <SCORE.INTRA.POLAR>
0

>  <SCORE.INTRA.POLAR.0>
0

>  <SCORE.INTRA.REPUL>
0

>  <SCORE.INTRA.REPUL.0>
0

>  <SCORE.INTRA.VDW>
0.574251

>  <SCORE.INTRA.VDW.0>
-0.815152

>  <SCORE.INTRA.norm>
0.0894585

>  <SCORE.RESTR>
0

>  <SCORE.RESTR.CAVITY>
0

>  <SCORE.RESTR.norm>
0

>  <SCORE.SYSTEM>
0

>  <SCORE.SYSTEM.CONST>
0

>  <SCORE.SYSTEM.DIHEDRAL>
0

>  <SCORE.SYSTEM.norm>
0

>  <SCORE.heavy>
21

>  <SCORE.norm>
-0.424371

>  <XChemDeepScore>
0.969676

>  <SuCOS_Max_Score>
0.43492868078898095

>  <SuCOS_Max_FeatureMap_Score>
0.27579795563736786

>  <SuCOS_Max_Protrude_Score>
0.59405940594059403

>  <SuCOS_Max_Index>
1

>  <SuCOS_Cum_Score>
2.3275579748623043

>  <SuCOS_Cum_FeatureMap_Score>
0.89575685773192626

>  <SuCOS_Cum_Protrude_Score>
3.7593590919926818

$$$$
