NC(CCCOCc1ccccc1)Cc1cccnc1
 OpenBabel03122003513D

 20 21  0  0  0  0  0  0  0  0999 V2000
   13.1714    0.9155   23.8858 N   0  0  0  0  0  0  0  0  0  0  0  0
   12.5318    1.1302   22.5850 C   0  0  1  0  0  0  0  0  0  0  0  0
   11.7138   -0.1088   22.1657 C   0  0  0  0  0  0  0  0  0  0  0  0
   10.6200   -0.4890   23.1649 C   0  0  0  0  0  0  0  0  0  0  0  0
    9.5839   -1.4072   22.5300 C   0  0  0  0  0  0  0  0  0  0  0  0
    8.8725   -0.6539   21.5536 O   0  0  0  0  0  0  0  0  0  0  0  0
    7.7766   -1.3931   21.0174 C   0  0  0  0  0  0  0  0  0  0  0  0
    7.1163   -0.6237   19.9012 C   0  0  0  0  0  0  0  0  0  0  0  0
    5.7164   -0.5811   19.8226 C   0  0  0  0  0  0  0  0  0  0  0  0
    5.0835    0.1427   18.8113 C   0  0  0  0  0  0  0  0  0  0  0  0
    5.8417    0.8439   17.8758 C   0  0  0  0  0  0  0  0  0  0  0  0
    7.2323    0.8274   17.9549 C   0  0  0  0  0  0  0  0  0  0  0  0
    7.8657    0.1045   18.9661 C   0  0  0  0  0  0  0  0  0  0  0  0
   11.6102    2.3702   22.6358 C   0  0  0  0  0  0  0  0  0  0  0  0
   12.3443    3.6844   22.7098 C   0  0  0  0  0  0  0  0  0  0  0  0
   12.9763    4.2389   21.5955 C   0  0  0  0  0  0  0  0  0  0  0  0
   13.6257    5.4651   21.7130 C   0  0  0  0  0  0  0  0  0  0  0  0
   13.6288    6.0942   22.9475 C   0  0  0  0  0  0  0  0  0  0  0  0
   13.0475    5.5829   24.0502 N   0  0  0  0  0  0  0  0  0  0  0  0
   12.4305    4.3880   23.9091 C   0  0  0  0  0  0  0  0  0  0  0  0
  2  1  1  1  0  0  0
  2  3  1  0  0  0  0
  2 14  1  0  0  0  0
  3  4  1  0  0  0  0
  4  5  1  0  0  0  0
  5  6  1  0  0  0  0
  6  7  1  0  0  0  0
  7  8  1  0  0  0  0
  8  9  2  0  0  0  0
  8 13  1  0  0  0  0
  9 10  1  0  0  0  0
 10 11  2  0  0  0  0
 11 12  1  0  0  0  0
 12 13  2  0  0  0  0
 14 15  1  0  0  0  0
 15 16  2  0  0  0  0
 15 20  1  0  0  0  0
 16 17  1  0  0  0  0
 17 18  2  0  0  0  0
 18 19  1  0  0  0  0
 19 20  2  0  0  0  0
M  END
>  <CHROM.1>
58.55189074,71.46799886,162.16200274,-67.87286206,-173.20251858,-174.93446798
-137.35000903,75.48118757,10.15260084,1.48245998,21.52536736,-0.33556998
0.67222638,2.75170867

>  <Name>
NC(CCCOCc1ccccc1)Cc1cccnc1

>  <RI>
0

>  <Rbt.Current_Directory>
/home/gse84885/github/im/docking-validation/targets/mpro/expts/jackall/work/Mpro-x0072_0/work/4e/1b6a20a985234d74c439b04660d7ef

>  <Rbt.Executable>
rbdock ($Id: //depot/dev/client3/rdock/2013.1/src/exe/rbdock.cxx#4 $)

>  <Rbt.Library>
libRbt.so (2013.1, Build901 2013/11/27)

>  <Rbt.Parameter_File>
/rDock_2013.1/data/scripts/dock.prm

>  <Rbt.Receptor>
docking-global.prm

>  <SCORE>
-8.51153

>  <SCORE.INTER>
-10.1823

>  <SCORE.INTER.CONST>
1

>  <SCORE.INTER.POLAR>
0

>  <SCORE.INTER.REPUL>
0

>  <SCORE.INTER.ROT>
8

>  <SCORE.INTER.VDW>
-23.5823

>  <SCORE.INTER.norm>
-0.509113

>  <SCORE.INTRA>
1.67073

>  <SCORE.INTRA.DIHEDRAL>
2.16789

>  <SCORE.INTRA.DIHEDRAL.0>
1.54919

>  <SCORE.INTRA.POLAR>
0

>  <SCORE.INTRA.POLAR.0>
0

>  <SCORE.INTRA.REPUL>
0

>  <SCORE.INTRA.REPUL.0>
0

>  <SCORE.INTRA.VDW>
0.586785

>  <SCORE.INTRA.VDW.0>
-1.49647

>  <SCORE.INTRA.norm>
0.0835365

>  <SCORE.RESTR>
0

>  <SCORE.RESTR.CAVITY>
0

>  <SCORE.RESTR.norm>
0

>  <SCORE.SYSTEM>
0

>  <SCORE.SYSTEM.CONST>
0

>  <SCORE.SYSTEM.DIHEDRAL>
0

>  <SCORE.SYSTEM.norm>
0

>  <SCORE.heavy>
20

>  <SCORE.norm>
-0.425576

>  <XChemDeepScore>
0.971717

>  <SuCOS_Max_Score>
0.46240253368641887

>  <SuCOS_Max_FeatureMap_Score>
0.31910340104077595

>  <SuCOS_Max_Protrude_Score>
0.60570166633206179

>  <SuCOS_Max_Index>
6

>  <SuCOS_Cum_Score>
2.0937369114658804

>  <SuCOS_Cum_FeatureMap_Score>
0.80609335356144962

>  <SuCOS_Cum_Protrude_Score>
3.3813804693703111

$$$$
