hits.sdf
 OpenBabel03112000213D

 11 11  0  0  0  0  0  0  0  0999 V2000
    9.4186   -2.5851   27.6277 C   0  0  0  0  0  0  0  0  0  0  0  0
    9.4872   -2.8899   26.1388 C   0  0  0  0  0  0  0  0  0  0  0  0
   10.5767   -2.1148   25.5845 N   0  0  0  0  0  0  0  0  0  0  0  0
   11.3255   -2.5208   24.4170 C   0  0  0  0  0  0  0  0  0  0  0  0
   10.8975   -3.5504   23.5878 C   0  0  0  0  0  0  0  0  0  0  0  0
   11.6467   -3.8877   22.4706 C   0  0  0  0  0  0  0  0  0  0  0  0
   12.8128   -3.1752   22.2134 C   0  0  0  0  0  0  0  0  0  0  0  0
   13.6860   -3.5084   21.0103 C   0  0  0  0  0  0  0  0  0  0  0  0
   14.3437   -3.7417   20.1099 N   0  0  0  0  0  0  0  0  0  0  0  0
   13.1744   -2.1587   23.0868 C   0  0  0  0  0  0  0  0  0  0  0  0
   12.4329   -1.8596   24.1480 N   0  0  0  0  0  0  0  0  0  0  0  0
  1  2  1  0  0  0  0
  2  3  1  0  0  0  0
  3  4  1  0  0  0  0
  4  5  2  0  0  0  0
  4 11  1  0  0  0  0
  5  6  1  0  0  0  0
  6  7  2  0  0  0  0
  7  8  1  0  0  0  0
  7 10  1  0  0  0  0
  8  9  3  0  0  0  0
 11 10  2  0  0  0  0
M  END
$$$$
