
 OpenBabel03142011073D

 27 28  0  0  0  0  0  0  0  0999 V2000
    9.3500    0.5820   20.9010 O   0  0  0  0  0  0  0  0  0  0  0  0
    8.8190   -0.3940   21.3240 C   0  0  0  0  0  0  0  0  0  0  0  0
    9.4750   -1.1740   22.3370 N   0  0  0  0  0  0  0  0  0  0  0  0
   10.7480   -0.7020   22.7950 C   0  0  0  0  0  0  0  0  0  0  0  0
   11.9040   -1.0710   22.1280 C   0  0  0  0  0  0  0  0  0  0  0  0
   13.1270   -0.5950   22.5680 C   0  0  0  0  0  0  0  0  0  0  0  0
   13.1750    0.2530   23.6640 C   0  0  0  0  0  0  0  0  0  0  0  0
   12.0060    0.6220   24.3230 C   0  0  0  0  0  0  0  0  0  0  0  0
   10.7860    0.1450   23.8880 C   0  0  0  0  0  0  0  0  0  0  0  0
    7.5250   -0.8400   20.8540 N   0  0  0  0  0  0  0  0  0  0  0  0
    6.7990   -0.1210   19.8290 C   0  0  0  0  0  0  0  0  0  0  0  0
    5.5920    0.4820   20.1630 C   0  0  0  0  0  0  0  0  0  0  0  0
    4.9180    1.1640   19.1550 C   0  0  0  0  0  0  0  0  0  0  0  0
    5.4700    1.1840   17.8770 C   0  0  0  0  0  0  0  0  0  0  0  0
    6.6140    0.5890   17.6110 N   0  0  0  0  0  0  0  0  0  0  0  0
    7.2940   -0.0560   18.5330 C   0  0  0  0  0  0  0  0  0  0  0  0
    9.0688   -1.9943   22.6994 H   0  0  0  0  0  0  0  0  0  0  0  0
   11.8541   -1.6965   21.3087 H   0  0  0  0  0  0  0  0  0  0  0  0
   13.9963   -0.8691   22.0841 H   0  0  0  0  0  0  0  0  0  0  0  0
   14.0842    0.6132   23.9935 H   0  0  0  0  0  0  0  0  0  0  0  0
   12.0514    1.2532   25.1382 H   0  0  0  0  0  0  0  0  0  0  0  0
    9.9152    0.4162   24.3710 H   0  0  0  0  0  0  0  0  0  0  0  0
    7.1283   -1.6535   21.2415 H   0  0  0  0  0  0  0  0  0  0  0  0
    5.2110    0.4260   21.1205 H   0  0  0  0  0  0  0  0  0  0  0  0
    4.0265    1.6456   19.3507 H   0  0  0  0  0  0  0  0  0  0  0  0
    4.9706    1.6769   17.1202 H   0  0  0  0  0  0  0  0  0  0  0  0
    8.1894   -0.5108   18.2954 H   0  0  0  0  0  0  0  0  0  0  0  0
  1  2  2  0  0  0  0
  2  3  1  0  0  0  0
  2 10  1  0  0  0  0
  3  4  1  0  0  0  0
  3 17  1  0  0  0  0
  4  5  2  0  0  0  0
  4  9  1  0  0  0  0
  5  6  1  0  0  0  0
  5 18  1  0  0  0  0
  6  7  2  0  0  0  0
  6 19  1  0  0  0  0
  7  8  1  0  0  0  0
  7 20  1  0  0  0  0
  8 21  1  0  0  0  0
  9  8  2  0  0  0  0
  9 22  1  0  0  0  0
 10 11  1  0  0  0  0
 10 23  1  0  0  0  0
 11 12  2  0  0  0  0
 11 16  1  0  0  0  0
 12 13  1  0  0  0  0
 12 24  1  0  0  0  0
 13 14  2  0  0  0  0
 13 25  1  0  0  0  0
 14 15  1  0  0  0  0
 14 26  1  0  0  0  0
 16 15  2  0  0  0  0
 16 27  1  0  0  0  0
M  END
$$$$
