COC(=O)[C@H](N)CCc1ccc(S(N)(=O)=O)cc1
 OpenBabel03122003533D

 34 34  0  0  0  0  0  0  0  0999 V2000
   12.9804    5.0324   24.1390 C   0  0  0  0  0  0  0  0  0  0  0  0
   12.7972    3.6186   24.2174 O   0  0  0  0  0  0  0  0  0  0  0  0
   12.7404    3.0039   22.9998 C   0  0  0  0  0  0  0  0  0  0  0  0
   12.8838    3.5728   21.9223 O   0  0  0  0  0  0  0  0  0  0  0  0
   12.4600    1.4980   23.1650 C   0  0  2  0  0  0  0  0  0  0  0  0
   13.7278    0.7558   22.9773 N   0  0  0  0  0  0  0  0  0  0  0  0
   11.3810    1.0745   22.1614 C   0  0  0  0  0  0  0  0  0  0  0  0
    9.9634    1.5118   22.5610 C   0  0  0  0  0  0  0  0  0  0  0  0
    8.9513    1.2008   21.4863 C   0  0  0  0  0  0  0  0  0  0  0  0
    9.1851    0.1522   20.5804 C   0  0  0  0  0  0  0  0  0  0  0  0
    8.2824   -0.1098   19.5518 C   0  0  0  0  0  0  0  0  0  0  0  0
    7.1273    0.6631   19.4414 C   0  0  0  0  0  0  0  0  0  0  0  0
    6.0045    0.3269   18.0627 S   0  0  0  0  0  0  0  0  0  0  0  0
    6.4077    1.3464   16.9161 N   0  0  0  0  0  0  0  0  0  0  0  0
    6.2892   -1.0690   17.7355 O   0  0  0  0  0  0  0  0  0  0  0  0
    4.6987    0.5651   18.6688 O   0  0  0  0  0  0  0  0  0  0  0  0
    6.8568    1.6838   20.3514 C   0  0  0  0  0  0  0  0  0  0  0  0
    7.7698    1.9502   21.3750 C   0  0  0  0  0  0  0  0  0  0  0  0
   13.0151    5.4428   25.1265 H   0  0  0  0  0  0  0  0  0  0  0  0
   12.1653    5.4683   23.6000 H   0  0  0  0  0  0  0  0  0  0  0  0
   13.8981    5.2456   23.6317 H   0  0  0  0  0  0  0  0  0  0  0  0
   12.0913    1.2773   24.1449 H   0  0  0  0  0  0  0  0  0  0  0  0
   14.1009    0.9497   22.0480 H   0  0  0  0  0  0  0  0  0  0  0  0
   13.5532   -0.2447   23.0717 H   0  0  0  0  0  0  0  0  0  0  0  0
   11.3954    0.0077   22.0794 H   0  0  0  0  0  0  0  0  0  0  0  0
   11.6084    1.5572   21.2339 H   0  0  0  0  0  0  0  0  0  0  0  0
    9.9648    2.5669   22.7391 H   0  0  0  0  0  0  0  0  0  0  0  0
    9.6868    0.9706   23.4416 H   0  0  0  0  0  0  0  0  0  0  0  0
   10.0325   -0.4287   20.6778 H   0  0  0  0  0  0  0  0  0  0  0  0
    8.4672   -0.8691   18.8778 H   0  0  0  0  0  0  0  0  0  0  0  0
    7.3297    1.1034   16.5538 H   0  0  0  0  0  0  0  0  0  0  0  0
    6.4301    2.2930   17.2953 H   0  0  0  0  0  0  0  0  0  0  0  0
    5.9899    2.2378   20.2698 H   0  0  0  0  0  0  0  0  0  0  0  0
    7.5742    2.7028   22.0535 H   0  0  0  0  0  0  0  0  0  0  0  0
  1  2  1  0  0  0  0
  1 19  1  0  0  0  0
  1 20  1  0  0  0  0
  1 21  1  0  0  0  0
  2  3  1  0  0  0  0
  3  4  2  0  0  0  0
  5  7  1  0  0  0  0
  5  6  1  0  0  0  0
  5  3  1  0  0  0  0
  5 22  1  1  0  0  0
  6 23  1  0  0  0  0
  6 24  1  0  0  0  0
  7  8  1  0  0  0  0
  7 25  1  0  0  0  0
  7 26  1  0  0  0  0
  8  9  1  0  0  0  0
  8 27  1  0  0  0  0
  8 28  1  0  0  0  0
  9 10  2  0  0  0  0
  9 18  1  0  0  0  0
 10 11  1  0  0  0  0
 10 29  1  0  0  0  0
 11 12  2  0  0  0  0
 11 30  1  0  0  0  0
 12 13  1  0  0  0  0
 12 17  1  0  0  0  0
 13 14  1  0  0  0  0
 13 15  2  0  0  0  0
 13 16  2  0  0  0  0
 14 31  1  0  0  0  0
 14 32  1  0  0  0  0
 17 18  2  0  0  0  0
 17 33  1  0  0  0  0
 18 34  1  0  0  0  0
M  END
>  <CHROM.1>
2.84777965,-75.71211748,-102.39433226,174.24476280,25.88419641,-95.00513401
9.25112912,1.43387276,20.81310471,0.51716004,-0.49859407,0.39178306

>  <Name>
COC(=O)[C@H](N)CCc1ccc(S(N)(=O)=O)cc1

>  <RI>
0

>  <Rbt.Current_Directory>
/home/gse84885/github/im/docking-validation/targets/mpro/expts/jackall/work/Mpro-x0072_0/work/2e/12ae4d4a41fa34ea224f8e03426fb3

>  <Rbt.Executable>
rbdock ($Id: //depot/dev/client3/rdock/2013.1/src/exe/rbdock.cxx#4 $)

>  <Rbt.Library>
libRbt.so (2013.1, Build901 2013/11/27)

>  <Rbt.Parameter_File>
/rDock_2013.1/data/scripts/dock.prm

>  <Rbt.Receptor>
docking-global.prm

>  <SCORE>
-7.52893

>  <SCORE.INTER>
-9.33611

>  <SCORE.INTER.CONST>
1

>  <SCORE.INTER.POLAR>
0

>  <SCORE.INTER.REPUL>
0.075375

>  <SCORE.INTER.ROT>
6

>  <SCORE.INTER.VDW>
-21.113

>  <SCORE.INTER.norm>
-0.518673

>  <SCORE.INTRA>
1.80718

>  <SCORE.INTRA.DIHEDRAL>
1.26001

>  <SCORE.INTRA.DIHEDRAL.0>
3.83001

>  <SCORE.INTRA.POLAR>
0

>  <SCORE.INTRA.POLAR.0>
0

>  <SCORE.INTRA.REPUL>
0

>  <SCORE.INTRA.REPUL.0>
0

>  <SCORE.INTRA.VDW>
1.17718

>  <SCORE.INTRA.VDW.0>
0.724325

>  <SCORE.INTRA.norm>
0.100399

>  <SCORE.RESTR>
0

>  <SCORE.RESTR.CAVITY>
0

>  <SCORE.RESTR.norm>
0

>  <SCORE.SYSTEM>
0

>  <SCORE.SYSTEM.CONST>
0

>  <SCORE.SYSTEM.DIHEDRAL>
0

>  <SCORE.SYSTEM.norm>
0

>  <SCORE.heavy>
18

>  <SCORE.norm>
-0.418274

>  <XChemDeepScore>
0.973945

>  <SuCOS_Max_Score>
0.29050766164849967

>  <SuCOS_Max_FeatureMap_Score>
0.0092901831682884427

>  <SuCOS_Max_Protrude_Score>
0.5717251401287109

>  <SuCOS_Max_Index>
5

>  <SuCOS_Cum_Score>
1.2966570173293843

>  <SuCOS_Cum_FeatureMap_Score>
0.063209198456021798

>  <SuCOS_Cum_Protrude_Score>
2.5301048362027467

$$$$
