CCCCCc1ccc(S(N)(=O)=O)cc1
 OpenBabel03122003533D

 32 32  0  0  0  0  0  0  0  0999 V2000
   13.5398    4.6358   23.6565 C   0  0  0  0  0  0  0  0  0  0  0  0
   12.7939    3.9916   22.5043 C   0  0  0  0  0  0  0  0  0  0  0  0
   11.9357    2.8190   22.9786 C   0  0  0  0  0  0  0  0  0  0  0  0
   11.0677    2.3208   21.8259 C   0  0  0  0  0  0  0  0  0  0  0  0
   10.0329    1.2708   22.2488 C   0  0  0  0  0  0  0  0  0  0  0  0
    8.9694    1.0076   21.2057 C   0  0  0  0  0  0  0  0  0  0  0  0
    9.1578   -0.0038   20.2557 C   0  0  0  0  0  0  0  0  0  0  0  0
    8.2017   -0.2409   19.2650 C   0  0  0  0  0  0  0  0  0  0  0  0
    7.0455    0.5303   19.2338 C   0  0  0  0  0  0  0  0  0  0  0  0
    5.7891    0.2059   17.9672 S   0  0  0  0  0  0  0  0  0  0  0  0
    4.3866    0.4253   18.6789 N   0  0  0  0  0  0  0  0  0  0  0  0
    6.0941    1.1997   16.9483 O   0  0  0  0  0  0  0  0  0  0  0  0
    6.0725   -1.1775   17.5892 O   0  0  0  0  0  0  0  0  0  0  0  0
    6.8269    1.5369   20.1723 C   0  0  0  0  0  0  0  0  0  0  0  0
    7.7896    1.7707   21.1641 C   0  0  0  0  0  0  0  0  0  0  0  0
   14.1286    5.4503   23.2893 H   0  0  0  0  0  0  0  0  0  0  0  0
   14.1797    3.9119   24.1163 H   0  0  0  0  0  0  0  0  0  0  0  0
   12.8375    4.9998   24.3770 H   0  0  0  0  0  0  0  0  0  0  0  0
   13.5032    3.6355   21.7867 H   0  0  0  0  0  0  0  0  0  0  0  0
   12.1484    4.7260   22.0697 H   0  0  0  0  0  0  0  0  0  0  0  0
   11.3085    3.1396   23.7840 H   0  0  0  0  0  0  0  0  0  0  0  0
   12.5712    2.0260   23.3135 H   0  0  0  0  0  0  0  0  0  0  0  0
   11.7057    1.8879   21.0840 H   0  0  0  0  0  0  0  0  0  0  0  0
   10.5256    3.1644   21.4527 H   0  0  0  0  0  0  0  0  0  0  0  0
    9.5524    1.6113   23.1421 H   0  0  0  0  0  0  0  0  0  0  0  0
   10.5620    0.3521   22.3933 H   0  0  0  0  0  0  0  0  0  0  0  0
   10.0129   -0.5807   20.2878 H   0  0  0  0  0  0  0  0  0  0  0  0
    8.3524   -0.9819   18.5627 H   0  0  0  0  0  0  0  0  0  0  0  0
    4.2718    1.4129   18.9068 H   0  0  0  0  0  0  0  0  0  0  0  0
    4.3496   -0.1277   19.5352 H   0  0  0  0  0  0  0  0  0  0  0  0
    5.9655    2.1042   20.1376 H   0  0  0  0  0  0  0  0  0  0  0  0
    7.6311    2.5081   21.8685 H   0  0  0  0  0  0  0  0  0  0  0  0
  1  2  1  0  0  0  0
  1 16  1  0  0  0  0
  1 17  1  0  0  0  0
  1 18  1  0  0  0  0
  2  3  1  0  0  0  0
  2 19  1  0  0  0  0
  2 20  1  0  0  0  0
  3  4  1  0  0  0  0
  3 21  1  0  0  0  0
  3 22  1  0  0  0  0
  4  5  1  0  0  0  0
  4 23  1  0  0  0  0
  4 24  1  0  0  0  0
  5  6  1  0  0  0  0
  5 25  1  0  0  0  0
  5 26  1  0  0  0  0
  6  7  2  0  0  0  0
  6 15  1  0  0  0  0
  7  8  1  0  0  0  0
  7 27  1  0  0  0  0
  8  9  2  0  0  0  0
  8 28  1  0  0  0  0
  9 10  1  0  0  0  0
  9 14  1  0  0  0  0
 10 11  1  0  0  0  0
 10 12  2  0  0  0  0
 10 13  2  0  0  0  0
 11 29  1  0  0  0  0
 11 30  1  0  0  0  0
 14 15  2  0  0  0  0
 14 31  1  0  0  0  0
 15 32  1  0  0  0  0
M  END
>  <CHROM.1>
172.62727593,-172.15765620,166.61559490,91.11977702,142.73669322,8.41864214
1.27325661,20.15268291,0.44745038,-0.60070838,0.11341517

>  <Name>
CCCCCc1ccc(S(N)(=O)=O)cc1

>  <RI>
0

>  <Rbt.Current_Directory>
/home/gse84885/github/im/docking-validation/targets/mpro/expts/jackall/work/Mpro-x0072_0/work/91/bdf07f7d89913b559ecce9136a5c65

>  <Rbt.Executable>
rbdock ($Id: //depot/dev/client3/rdock/2013.1/src/exe/rbdock.cxx#4 $)

>  <Rbt.Library>
libRbt.so (2013.1, Build901 2013/11/27)

>  <Rbt.Parameter_File>
/rDock_2013.1/data/scripts/dock.prm

>  <Rbt.Receptor>
docking-global.prm

>  <SCORE>
-8.10021

>  <SCORE.INTER>
-8.51651

>  <SCORE.INTER.CONST>
1

>  <SCORE.INTER.POLAR>
0

>  <SCORE.INTER.REPUL>
0.0422106

>  <SCORE.INTER.ROT>
5

>  <SCORE.INTER.VDW>
-19.1276

>  <SCORE.INTER.norm>
-0.567767

>  <SCORE.INTRA>
0.4163

>  <SCORE.INTRA.DIHEDRAL>
1.1773

>  <SCORE.INTRA.DIHEDRAL.0>
1.90822

>  <SCORE.INTRA.POLAR>
0

>  <SCORE.INTRA.POLAR.0>
0

>  <SCORE.INTRA.REPUL>
0

>  <SCORE.INTRA.REPUL.0>
0

>  <SCORE.INTRA.VDW>
-0.172352

>  <SCORE.INTRA.VDW.0>
-0.976648

>  <SCORE.INTRA.norm>
0.0277534

>  <SCORE.RESTR>
0

>  <SCORE.RESTR.CAVITY>
0

>  <SCORE.RESTR.norm>
0

>  <SCORE.SYSTEM>
0

>  <SCORE.SYSTEM.CONST>
0

>  <SCORE.SYSTEM.DIHEDRAL>
0

>  <SCORE.SYSTEM.norm>
0

>  <SCORE.heavy>
15

>  <SCORE.norm>
-0.540014

>  <XChemDeepScore>
0.974627

>  <SuCOS_Max_Score>
0.2618657272637307

>  <SuCOS_Max_FeatureMap_Score>
0.053718959733625456

>  <SuCOS_Max_Protrude_Score>
0.47001249479383589

>  <SuCOS_Max_Index>
5

>  <SuCOS_Cum_Score>
1.0078366654309014

>  <SuCOS_Cum_FeatureMap_Score>
0.31961062394345929

>  <SuCOS_Cum_Protrude_Score>
1.6960627069183436

$$$$
