O=C(CNS(=O)(=O)c1ccccc1)NO
 OpenBabel03122003513D

 15 15  0  0  0  0  0  0  0  0999 V2000
   11.2556   -2.2839   22.2619 O   0  0  0  0  0  0  0  0  0  0  0  0
   11.8733   -1.2790   21.9086 C   0  0  0  0  0  0  0  0  0  0  0  0
   11.1184    0.0214   21.6481 C   0  0  0  0  0  0  0  0  0  0  0  0
   11.9252    1.2282   21.9157 N   0  0  0  0  0  0  0  0  0  0  0  0
   11.7452    1.9904   23.3821 S   0  0  0  0  0  0  0  0  0  0  0  0
   10.3310    2.2154   23.5823 O   0  0  0  0  0  0  0  0  0  0  0  0
   12.5418    1.2960   24.3718 O   0  0  0  0  0  0  0  0  0  0  0  0
   12.4782    3.5832   23.0922 C   0  0  0  0  0  0  0  0  0  0  0  0
   12.8533    3.9321   21.7902 C   0  0  0  0  0  0  0  0  0  0  0  0
   13.3862    5.1967   21.5444 C   0  0  0  0  0  0  0  0  0  0  0  0
   13.5343    6.1084   22.5918 C   0  0  0  0  0  0  0  0  0  0  0  0
   13.1548    5.7579   23.8881 C   0  0  0  0  0  0  0  0  0  0  0  0
   12.6242    4.4919   24.1428 C   0  0  0  0  0  0  0  0  0  0  0  0
   13.2447   -1.1444   21.7043 N   0  0  0  0  0  0  0  0  0  0  0  0
   14.0890   -2.1809   22.0499 O   0  0  0  0  0  0  0  0  0  0  0  0
  1  2  2  0  0  0  0
  2  3  1  0  0  0  0
  2 14  1  0  0  0  0
  3  4  1  0  0  0  0
  4  5  1  0  0  0  0
  5  6  2  0  0  0  0
  5  7  2  0  0  0  0
  5  8  1  0  0  0  0
  8  9  2  0  0  0  0
  8 13  1  0  0  0  0
  9 10  1  0  0  0  0
 10 11  2  0  0  0  0
 11 12  1  0  0  0  0
 12 13  2  0  0  0  0
 14 15  1  0  0  0  0
M  END
>  <CHROM.1>
150.36961875,-97.50948544,-51.32264977,8.13787111,12.33377845,1.80233321
22.72989121,1.68226698,-0.59937017,-2.93792260

>  <Name>
O=C(CNS(=O)(=O)c1ccccc1)NO

>  <RI>
0

>  <Rbt.Current_Directory>
/home/gse84885/github/im/docking-validation/targets/mpro/expts/jackall/work/Mpro-x0072_0/work/59/df6cc31aa08e6f9ea95284ce955684

>  <Rbt.Executable>
rbdock ($Id: //depot/dev/client3/rdock/2013.1/src/exe/rbdock.cxx#4 $)

>  <Rbt.Library>
libRbt.so (2013.1, Build901 2013/11/27)

>  <Rbt.Parameter_File>
/rDock_2013.1/data/scripts/dock.prm

>  <Rbt.Receptor>
docking-global.prm

>  <SCORE>
-10.2719

>  <SCORE.INTER>
-8.78399

>  <SCORE.INTER.CONST>
1

>  <SCORE.INTER.POLAR>
0

>  <SCORE.INTER.REPUL>
0

>  <SCORE.INTER.ROT>
4

>  <SCORE.INTER.VDW>
-18.184

>  <SCORE.INTER.norm>
-0.585599

>  <SCORE.INTRA>
-1.48788

>  <SCORE.INTRA.DIHEDRAL>
-1.96231

>  <SCORE.INTRA.DIHEDRAL.0>
5.4177

>  <SCORE.INTRA.POLAR>
0

>  <SCORE.INTRA.POLAR.0>
0

>  <SCORE.INTRA.REPUL>
-0.0399997

>  <SCORE.INTRA.REPUL.0>
0.0399997

>  <SCORE.INTRA.VDW>
-0.306732

>  <SCORE.INTRA.VDW.0>
-1.05406

>  <SCORE.INTRA.norm>
-0.0991923

>  <SCORE.RESTR>
0

>  <SCORE.RESTR.CAVITY>
0

>  <SCORE.RESTR.norm>
0

>  <SCORE.SYSTEM>
0

>  <SCORE.SYSTEM.CONST>
0

>  <SCORE.SYSTEM.DIHEDRAL>
0

>  <SCORE.SYSTEM.norm>
0

>  <SCORE.heavy>
15

>  <SCORE.norm>
-0.684792

>  <XChemDeepScore>
0.996643

>  <SuCOS_Max_Score>
0.35908908418974889

>  <SuCOS_Max_FeatureMap_Score>
0.12838140355162553

>  <SuCOS_Max_Protrude_Score>
0.58979676482787224

>  <SuCOS_Max_Index>
1

>  <SuCOS_Cum_Score>
1.6094167133754209

>  <SuCOS_Cum_FeatureMap_Score>
0.28667875563048778

>  <SuCOS_Cum_Protrude_Score>
2.9321546711203537

$$$$
