
 OpenBabel03142011073D

 26 26  0  0  0  0  0  0  0  0999 V2000
    9.8790   -5.4960   26.1730 C   0  0  0  0  0  0  0  0  0  0  0  0
    8.4790   -4.3410   26.0680 S   0  0  0  0  0  0  0  0  0  0  0  0
    7.1910   -5.0190   26.2290 O   0  0  0  0  0  0  0  0  0  0  0  0
    8.4340   -3.4430   27.2120 O   0  0  0  0  0  0  0  0  0  0  0  0
    8.4960   -3.4980   24.5920 N   0  0  0  0  0  0  0  0  0  0  0  0
    9.7540   -3.0340   24.0580 C   0  0  0  0  0  0  0  0  0  0  0  0
    9.5680   -1.8260   23.1510 C   0  0  0  0  0  0  0  0  0  0  0  0
   10.8760   -1.0500   23.1440 C   0  0  0  0  0  0  0  0  0  0  0  0
   11.9060   -1.4610   22.3160 C   0  0  0  0  0  0  0  0  0  0  0  0
   13.1060   -0.7790   22.3180 C   0  0  0  0  0  0  0  0  0  0  0  0
   13.2770    0.3180   23.1500 C   0  0  0  0  0  0  0  0  0  0  0  0
   12.2420    0.7320   23.9810 C   0  0  0  0  0  0  0  0  0  0  0  0
   11.0390    0.0410   23.9830 C   0  0  0  0  0  0  0  0  0  0  0  0
    9.8455   -6.0129   27.1092 H   0  0  0  0  0  0  0  0  0  0  0  0
   10.7970   -4.9514   26.0990 H   0  0  0  0  0  0  0  0  0  0  0  0
    9.8185   -6.2035   25.3726 H   0  0  0  0  0  0  0  0  0  0  0  0
    7.9025   -2.6771   24.7114 H   0  0  0  0  0  0  0  0  0  0  0  0
   10.2046   -3.8245   23.4950 H   0  0  0  0  0  0  0  0  0  0  0  0
   10.3779   -2.7436   24.8773 H   0  0  0  0  0  0  0  0  0  0  0  0
    8.7789   -1.2074   23.5245 H   0  0  0  0  0  0  0  0  0  0  0  0
    9.3101   -2.1365   22.1600 H   0  0  0  0  0  0  0  0  0  0  0  0
   11.7769   -2.2769   21.6974 H   0  0  0  0  0  0  0  0  0  0  0  0
   13.8750   -1.0847   21.7014 H   0  0  0  0  0  0  0  0  0  0  0  0
   14.1743    0.8278   23.1521 H   0  0  0  0  0  0  0  0  0  0  0  0
   12.3684    1.5517   24.5951 H   0  0  0  0  0  0  0  0  0  0  0  0
   10.2707    0.3374   24.6050 H   0  0  0  0  0  0  0  0  0  0  0  0
  1 14  1  0  0  0  0
  1 15  1  0  0  0  0
  1 16  1  0  0  0  0
  2  1  1  0  0  0  0
  2  3  2  0  0  0  0
  2  4  2  0  0  0  0
  2  5  1  0  0  0  0
  5  6  1  0  0  0  0
  5 17  1  0  0  0  0
  6  7  1  0  0  0  0
  6 18  1  0  0  0  0
  6 19  1  0  0  0  0
  7  8  1  0  0  0  0
  7 20  1  0  0  0  0
  7 21  1  0  0  0  0
  8  9  2  0  0  0  0
  8 13  1  0  0  0  0
  9 10  1  0  0  0  0
  9 22  1  0  0  0  0
 10 11  2  0  0  0  0
 10 23  1  0  0  0  0
 11 12  1  0  0  0  0
 11 24  1  0  0  0  0
 12 25  1  0  0  0  0
 13 12  2  0  0  0  0
 13 26  1  0  0  0  0
M  END
$$$$
