COC(=O)c1ccc(C(=N)NO)cc1
 OpenBabel03122003513D

 14 14  0  0  0  0  0  0  0  0999 V2000
    5.8379   -0.6555   18.4447 C   0  0  0  0  0  0  0  0  0  0  0  0
    7.0579   -0.5272   19.1800 O   0  0  0  0  0  0  0  0  0  0  0  0
    7.1753    0.6472   19.8444 C   0  0  0  0  0  0  0  0  0  0  0  0
    6.3499    1.5448   19.8798 O   0  0  0  0  0  0  0  0  0  0  0  0
    8.4766    0.7202   20.5655 C   0  0  0  0  0  0  0  0  0  0  0  0
    8.7945    1.9091   21.2301 C   0  0  0  0  0  0  0  0  0  0  0  0
   10.0084    2.0420   21.9161 C   0  0  0  0  0  0  0  0  0  0  0  0
   10.9308    0.9814   21.9718 C   0  0  0  0  0  0  0  0  0  0  0  0
   12.2176    1.1256   22.7106 C   0  0  0  0  0  0  0  0  0  0  0  0
   12.4503    2.2746   23.3292 N   0  0  0  0  0  0  0  0  0  0  0  0
   13.0556    0.0935   22.7050 N   0  0  0  0  0  0  0  0  0  0  0  0
   14.2800    0.0876   23.3697 O   0  0  0  0  0  0  0  0  0  0  0  0
   10.5985   -0.2106   21.3023 C   0  0  0  0  0  0  0  0  0  0  0  0
    9.3892   -0.3383   20.6003 C   0  0  0  0  0  0  0  0  0  0  0  0
  1  2  1  0  0  0  0
  2  3  1  0  0  0  0
  3  4  2  0  0  0  0
  3  5  1  0  0  0  0
  5  6  2  0  0  0  0
  5 14  1  0  0  0  0
  6  7  1  0  0  0  0
  7  8  2  0  0  0  0
  8  9  1  0  0  0  0
  8 13  1  0  0  0  0
  9 10  2  0  0  0  0
  9 11  1  0  0  0  0
 11 12  1  0  0  0  0
 13 14  2  0  0  0  0
M  END
>  <CHROM.1>
1.40248909,175.78635292,1.13346236,9.72481400,0.66443670,21.18692641,-2.85987229
-0.45174123,0.42647831

>  <Name>
COC(=O)c1ccc(C(=N)NO)cc1

>  <RI>
0

>  <Rbt.Current_Directory>
/home/gse84885/github/im/docking-validation/targets/mpro/expts/jackall/work/Mpro-x0072_0/work/e1/4804c84b587564d1859947a5e1d97c

>  <Rbt.Executable>
rbdock ($Id: //depot/dev/client3/rdock/2013.1/src/exe/rbdock.cxx#4 $)

>  <Rbt.Library>
libRbt.so (2013.1, Build901 2013/11/27)

>  <Rbt.Parameter_File>
/rDock_2013.1/data/scripts/dock.prm

>  <Rbt.Receptor>
docking-global.prm

>  <SCORE>
-7.24417

>  <SCORE.INTER>
-5.54803

>  <SCORE.INTER.CONST>
1

>  <SCORE.INTER.POLAR>
0

>  <SCORE.INTER.REPUL>
0

>  <SCORE.INTER.ROT>
3

>  <SCORE.INTER.VDW>
-13.948

>  <SCORE.INTER.norm>
-0.396288

>  <SCORE.INTRA>
-1.69614

>  <SCORE.INTRA.DIHEDRAL>
-3.90743

>  <SCORE.INTRA.DIHEDRAL.0>
3.992

>  <SCORE.INTRA.POLAR>
0

>  <SCORE.INTRA.POLAR.0>
0

>  <SCORE.INTRA.REPUL>
0

>  <SCORE.INTRA.REPUL.0>
0

>  <SCORE.INTRA.VDW>
0.257577

>  <SCORE.INTRA.VDW.0>
1.64362

>  <SCORE.INTRA.norm>
-0.121153

>  <SCORE.RESTR>
0

>  <SCORE.RESTR.CAVITY>
0

>  <SCORE.RESTR.norm>
0

>  <SCORE.SYSTEM>
0

>  <SCORE.SYSTEM.CONST>
0

>  <SCORE.SYSTEM.DIHEDRAL>
0

>  <SCORE.SYSTEM.norm>
0

>  <SCORE.heavy>
14

>  <SCORE.norm>
-0.51744

>  <XChemDeepScore>
0.998702

>  <SuCOS_Max_Score>
0.26598139768950846

>  <SuCOS_Max_FeatureMap_Score>
0.0031888170637541578

>  <SuCOS_Max_Protrude_Score>
0.52877397831526274

>  <SuCOS_Max_Index>
5

>  <SuCOS_Cum_Score>
1.2141590032933465

>  <SuCOS_Cum_FeatureMap_Score>
0.089104688190143153

>  <SuCOS_Cum_Protrude_Score>
2.33921331839655

$$$$
