@<TRIPOS>MOLECULE
hits.sdf
16 17 1 0 0
SMALL
NO_CHARGES


@<TRIPOS>ATOM
      1 O1          9.7039   -1.1845   20.8421 O.2       1 UNK    0.0000
      2 C1          9.1369   -2.1789   21.1634 C.2       1 UNK    0.0000
      3 N1          9.7777   -3.1006   22.0605 N.pl3     1 UNK    0.0000
      4 C2         11.0814   -2.7424   22.5349 C.ar      1 UNK    0.0000
      5 C3         12.2036   -3.0815   21.7980 C.ar      1 UNK    0.0000
      6 C4         13.4572   -2.7150   22.2564 C.ar      1 UNK    0.0000
      7 C5         13.5695   -2.0044   23.4417 C.ar      1 UNK    0.0000
      8 C6         12.4342   -1.6638   24.1711 C.ar      1 UNK    0.0000
      9 C7         11.1837   -2.0320   23.7174 C.ar      1 UNK    0.0000
     10 N2          7.8132   -2.5090   20.6807 N.pl3     1 UNK    0.0000
     11 C8          7.0993   -1.6433   19.7665 C.ar      1 UNK    0.0000
     12 C9          5.9299   -1.0308   20.2015 C.ar      1 UNK    0.0000
     13 C10         5.2666   -0.2061   19.2985 C.ar      1 UNK    0.0000
     14 C11         5.7904   -0.0608   18.0167 C.ar      1 UNK    0.0000
     15 N3          6.8988   -0.6706   17.6519 N.ar      1 UNK    0.0000
     16 C12         7.5679   -1.4487   18.4737 C.ar      1 UNK    0.0000
@<TRIPOS>BOND
     1    1    2 2
     2    2    3 2
     3    2   10 2
     4    3    4 1
     5   10   11 1
     6    4    5 ar
     7    4    9 ar
     8    5    6 ar
     9    9    8 ar
    10    6    7 ar
    11    7    8 ar
    12   11   12 ar
    13   11   16 ar
    14   12   13 ar
    15   16   15 ar
    16   13   14 ar
    17   14   15 ar
@<TRIPOS>SUBSTRUCTURE
     1 UNK     1 RESIDUE           4 A     UNK     0 ROOT
