COC(=O)c1ccc(C=CC(=O)C(=O)O)cc1
 OpenBabel03122003513D

 17 17  0  0  0  0  0  0  0  0999 V2000
    8.9777   -4.2838   26.5823 C   0  0  0  0  0  0  0  0  0  0  0  0
    9.5204   -3.0988   26.0057 O   0  0  0  0  0  0  0  0  0  0  0  0
   10.0110   -3.2656   24.7520 C   0  0  0  0  0  0  0  0  0  0  0  0
   10.0064   -4.3112   24.1179 O   0  0  0  0  0  0  0  0  0  0  0  0
   10.5695   -1.9886   24.2350 C   0  0  0  0  0  0  0  0  0  0  0  0
   11.0450   -1.9495   22.9194 C   0  0  0  0  0  0  0  0  0  0  0  0
   11.5878   -0.7678   22.4003 C   0  0  0  0  0  0  0  0  0  0  0  0
   11.6533    0.3959   23.1795 C   0  0  0  0  0  0  0  0  0  0  0  0
   12.2247    1.6160   22.5874 C   0  0  0  0  0  0  0  0  0  0  0  0
   12.4185    2.7587   23.2630 C   0  0  0  0  0  0  0  0  0  0  0  0
   12.9456    3.9823   22.5904 C   0  0  0  0  0  0  0  0  0  0  0  0
   13.1398    4.0446   21.3752 O   0  0  0  0  0  0  0  0  0  0  0  0
   13.2466    5.2285   23.4558 C   0  0  0  0  0  0  0  0  0  0  0  0
   13.1101    5.0651   24.7147 O   0  0  0  0  0  0  0  0  0  0  0  0
   13.6004    6.2999   22.8696 O   0  0  0  0  0  0  0  0  0  0  0  0
   11.1928    0.3411   24.5027 C   0  0  0  0  0  0  0  0  0  0  0  0
   10.6473   -0.8365   25.0255 C   0  0  0  0  0  0  0  0  0  0  0  0
  1  2  1  0  0  0  0
  2  3  1  0  0  0  0
  3  4  2  0  0  0  0
  3  5  1  0  0  0  0
  5  6  2  0  0  0  0
  5 17  1  0  0  0  0
  6  7  1  0  0  0  0
  7  8  2  0  0  0  0
  8  9  1  0  0  0  0
  8 16  1  0  0  0  0
  9 10  2  0  0  0  0
 10 11  1  0  0  0  0
 11 12  2  0  0  0  0
 11 13  1  0  0  0  0
 13 14  2  0  0  0  0
 13 15  1  0  0  0  0
 16 17  2  0  0  0  0
M  END
>  <CHROM.1>
0.57841661,-175.99783205,-175.42938764,5.32518572,5.19435283,11.52032838
0.56171469,23.82719866,2.72707348,-1.15851669,-2.26816431

>  <Name>
COC(=O)c1ccc(C=CC(=O)C(=O)O)cc1

>  <RI>
0

>  <Rbt.Current_Directory>
/home/gse84885/github/im/docking-validation/targets/mpro/expts/jackall/work/Mpro-x0072_0/work/ff/44e4e7621d938bfd4ab9b6b3725469

>  <Rbt.Executable>
rbdock ($Id: //depot/dev/client3/rdock/2013.1/src/exe/rbdock.cxx#4 $)

>  <Rbt.Library>
libRbt.so (2013.1, Build901 2013/11/27)

>  <Rbt.Parameter_File>
/rDock_2013.1/data/scripts/dock.prm

>  <Rbt.Receptor>
docking-global.prm

>  <SCORE>
-7.29284

>  <SCORE.INTER>
-5.97559

>  <SCORE.INTER.CONST>
1

>  <SCORE.INTER.POLAR>
0

>  <SCORE.INTER.REPUL>
0.0180395

>  <SCORE.INTER.ROT>
5

>  <SCORE.INTER.VDW>
-16.4658

>  <SCORE.INTER.norm>
-0.351505

>  <SCORE.INTRA>
-1.31725

>  <SCORE.INTRA.DIHEDRAL>
-2.88938

>  <SCORE.INTRA.DIHEDRAL.0>
3.20078

>  <SCORE.INTRA.POLAR>
0

>  <SCORE.INTRA.POLAR.0>
0

>  <SCORE.INTRA.REPUL>
0

>  <SCORE.INTRA.REPUL.0>
0

>  <SCORE.INTRA.VDW>
0.127446

>  <SCORE.INTRA.VDW.0>
1.85497

>  <SCORE.INTRA.norm>
-0.077485

>  <SCORE.RESTR>
0

>  <SCORE.RESTR.CAVITY>
0

>  <SCORE.RESTR.norm>
0

>  <SCORE.SYSTEM>
0

>  <SCORE.SYSTEM.CONST>
0

>  <SCORE.SYSTEM.DIHEDRAL>
0

>  <SCORE.SYSTEM.norm>
0

>  <SCORE.heavy>
17

>  <SCORE.norm>
-0.42899

>  <XChemDeepScore>
0.975401

>  <SuCOS_Max_Score>
0.40794162025234398

>  <SuCOS_Max_FeatureMap_Score>
0.2882377652510123

>  <SuCOS_Max_Protrude_Score>
0.52764547525367567

>  <SuCOS_Max_Index>
1

>  <SuCOS_Cum_Score>
2.049253700001588

>  <SuCOS_Cum_FeatureMap_Score>
0.9610692157820997

>  <SuCOS_Cum_Protrude_Score>
3.1374381842210761

$$$$
