NC(CCCOCc1ccccc1)CCc1ccncc1
 OpenBabel03122003533D

 45 46  0  0  0  0  0  0  0  0999 V2000
   13.9503    0.0120   23.4406 N   0  0  0  0  0  0  0  0  0  0  0  0
   12.9281    0.8524   22.8208 C   0  0  1  0  0  0  0  0  0  0  0  0
   11.5593    0.1571   22.7922 C   0  0  0  0  0  0  0  0  0  0  0  0
   11.5739   -1.1981   22.0924 C   0  0  0  0  0  0  0  0  0  0  0  0
   10.1724   -1.7827   22.0551 C   0  0  0  0  0  0  0  0  0  0  0  0
    9.4097   -1.0290   21.1250 O   0  0  0  0  0  0  0  0  0  0  0  0
    8.0473   -1.4462   21.1307 C   0  0  0  0  0  0  0  0  0  0  0  0
    7.3026   -0.8410   19.9728 C   0  0  0  0  0  0  0  0  0  0  0  0
    7.9399    0.1276   19.1862 C   0  0  0  0  0  0  0  0  0  0  0  0
    7.2827    0.7026   18.1035 C   0  0  0  0  0  0  0  0  0  0  0  0
    5.9860    0.3051   17.7799 C   0  0  0  0  0  0  0  0  0  0  0  0
    5.3513   -0.6725   18.5411 C   0  0  0  0  0  0  0  0  0  0  0  0
    6.0073   -1.2521   19.6292 C   0  0  0  0  0  0  0  0  0  0  0  0
   12.8304    2.1619   23.6193 C   0  0  0  0  0  0  0  0  0  0  0  0
   12.1192    3.2709   22.8394 C   0  0  0  0  0  0  0  0  0  0  0  0
   11.9269    4.5073   23.6828 C   0  0  0  0  0  0  0  0  0  0  0  0
   10.6554    5.0628   23.8523 C   0  0  0  0  0  0  0  0  0  0  0  0
   10.5055    6.1781   24.6664 C   0  0  0  0  0  0  0  0  0  0  0  0
   11.5765    6.7117   25.2737 N   0  0  0  0  0  0  0  0  0  0  0  0
   12.8157    6.2204   25.1121 C   0  0  0  0  0  0  0  0  0  0  0  0
   13.0210    5.1117   24.3044 C   0  0  0  0  0  0  0  0  0  0  0  0
   14.0299   -0.8636   22.9236 H   0  0  0  0  0  0  0  0  0  0  0  0
   13.6881   -0.1860   24.4062 H   0  0  0  0  0  0  0  0  0  0  0  0
   13.2082    1.0453   21.8063 H   0  0  0  0  0  0  0  0  0  0  0  0
   10.8678    0.7937   22.2810 H   0  0  0  0  0  0  0  0  0  0  0  0
   11.2772   -0.0194   23.8091 H   0  0  0  0  0  0  0  0  0  0  0  0
   12.2208   -1.8639   22.6244 H   0  0  0  0  0  0  0  0  0  0  0  0
   11.9264   -1.0704   21.0902 H   0  0  0  0  0  0  0  0  0  0  0  0
    9.7266   -1.7205   23.0258 H   0  0  0  0  0  0  0  0  0  0  0  0
   10.2054   -2.8115   21.7630 H   0  0  0  0  0  0  0  0  0  0  0  0
    7.5881   -1.1345   22.0455 H   0  0  0  0  0  0  0  0  0  0  0  0
    8.0130   -2.5121   21.0432 H   0  0  0  0  0  0  0  0  0  0  0  0
    8.9045    0.4167   19.4119 H   0  0  0  0  0  0  0  0  0  0  0  0
    7.7559    1.4250   17.5385 H   0  0  0  0  0  0  0  0  0  0  0  0
    5.4981    0.7345   16.9783 H   0  0  0  0  0  0  0  0  0  0  0  0
    4.3928   -0.9699   18.3005 H   0  0  0  0  0  0  0  0  0  0  0  0
    5.5369   -1.9855   20.1822 H   0  0  0  0  0  0  0  0  0  0  0  0
   13.8193    2.4916   23.8604 H   0  0  0  0  0  0  0  0  0  0  0  0
   12.2566    1.9640   24.5005 H   0  0  0  0  0  0  0  0  0  0  0  0
   11.1614    2.9137   22.5233 H   0  0  0  0  0  0  0  0  0  0  0  0
   12.7268    3.5309   21.9979 H   0  0  0  0  0  0  0  0  0  0  0  0
    9.8375    4.6490   23.3780 H   0  0  0  0  0  0  0  0  0  0  0  0
    9.5719    6.5958   24.8040 H   0  0  0  0  0  0  0  0  0  0  0  0
   13.6146    6.6674   25.5885 H   0  0  0  0  0  0  0  0  0  0  0  0
   13.9725    4.7375   24.1644 H   0  0  0  0  0  0  0  0  0  0  0  0
  1 22  1  0  0  0  0
  1 23  1  0  0  0  0
  2  1  1  0  0  0  0
  2  3  1  0  0  0  0
  2 14  1  0  0  0  0
  2 24  1  6  0  0  0
  3  4  1  0  0  0  0
  3 25  1  0  0  0  0
  3 26  1  0  0  0  0
  4  5  1  0  0  0  0
  4 27  1  0  0  0  0
  4 28  1  0  0  0  0
  5  6  1  0  0  0  0
  5 29  1  0  0  0  0
  5 30  1  0  0  0  0
  6  7  1  0  0  0  0
  7  8  1  0  0  0  0
  7 31  1  0  0  0  0
  7 32  1  0  0  0  0
  8  9  2  0  0  0  0
  8 13  1  0  0  0  0
  9 10  1  0  0  0  0
  9 33  1  0  0  0  0
 10 11  2  0  0  0  0
 10 34  1  0  0  0  0
 11 12  1  0  0  0  0
 11 35  1  0  0  0  0
 12 13  2  0  0  0  0
 12 36  1  0  0  0  0
 13 37  1  0  0  0  0
 14 15  1  0  0  0  0
 14 38  1  0  0  0  0
 14 39  1  0  0  0  0
 15 16  1  0  0  0  0
 15 40  1  0  0  0  0
 15 41  1  0  0  0  0
 16 17  2  0  0  0  0
 16 21  1  0  0  0  0
 17 18  1  0  0  0  0
 17 42  1  0  0  0  0
 18 19  2  0  0  0  0
 18 43  1  0  0  0  0
 19 20  1  0  0  0  0
 20 21  2  0  0  0  0
 20 44  1  0  0  0  0
 21 45  1  0  0  0  0
M  END
>  <CHROM.1>
-56.24746901,162.68662974,-177.42815132,71.58699242,-174.62776332,-169.11778784
-7.80889058,175.02666980,-125.19741650,10.17488514,1.53251404,22.01842932
-0.83990611,0.55657776,-2.85328420

>  <Name>
NC(CCCOCc1ccccc1)CCc1ccncc1

>  <RI>
0

>  <Rbt.Current_Directory>
/home/gse84885/github/im/docking-validation/targets/mpro/expts/jackall/work/Mpro-x0072_0/work/02/8551378c8ae56971d85b652a28554d

>  <Rbt.Executable>
rbdock ($Id: //depot/dev/client3/rdock/2013.1/src/exe/rbdock.cxx#4 $)

>  <Rbt.Library>
libRbt.so (2013.1, Build901 2013/11/27)

>  <Rbt.Parameter_File>
/rDock_2013.1/data/scripts/dock.prm

>  <Rbt.Receptor>
docking-global.prm

>  <SCORE>
-8.71784

>  <SCORE.INTER>
-10.9219

>  <SCORE.INTER.CONST>
1

>  <SCORE.INTER.POLAR>
0

>  <SCORE.INTER.REPUL>
0

>  <SCORE.INTER.ROT>
9

>  <SCORE.INTER.VDW>
-25.3219

>  <SCORE.INTER.norm>
-0.520092

>  <SCORE.INTRA>
2.20409

>  <SCORE.INTRA.DIHEDRAL>
2.40883

>  <SCORE.INTRA.DIHEDRAL.0>
1.51144

>  <SCORE.INTRA.POLAR>
0

>  <SCORE.INTRA.POLAR.0>
0

>  <SCORE.INTRA.REPUL>
0

>  <SCORE.INTRA.REPUL.0>
0

>  <SCORE.INTRA.VDW>
0.999673

>  <SCORE.INTRA.VDW.0>
-1.18663

>  <SCORE.INTRA.norm>
0.104957

>  <SCORE.RESTR>
0

>  <SCORE.RESTR.CAVITY>
0

>  <SCORE.RESTR.norm>
0

>  <SCORE.SYSTEM>
0

>  <SCORE.SYSTEM.CONST>
0

>  <SCORE.SYSTEM.DIHEDRAL>
0

>  <SCORE.SYSTEM.norm>
0

>  <SCORE.heavy>
21

>  <SCORE.norm>
-0.415135

>  <XChemDeepScore>
0.969507

>  <SuCOS_Max_Score>
0.40224136970058433

>  <SuCOS_Max_FeatureMap_Score>
0.20477205537554352

>  <SuCOS_Max_Protrude_Score>
0.59971068402562511

>  <SuCOS_Max_Index>
1

>  <SuCOS_Cum_Score>
2.2846292610688597

>  <SuCOS_Cum_FeatureMap_Score>
0.79268909206534344

>  <SuCOS_Cum_Protrude_Score>
3.7765694300723758

$$$$
