C[C@H](Cc1ccccc1)C(=O)NO
 OpenBabel03122003533D

 26 26  0  0  0  0  0  0  0  0999 V2000
   10.2021    0.1422   22.1394 C   0  0  0  0  0  0  0  0  0  0  0  0
   11.0770    1.2660   22.7010 C   0  0  2  0  0  0  0  0  0  0  0  0
   11.4843    2.2927   21.6284 C   0  0  0  0  0  0  0  0  0  0  0  0
   12.2805    3.4687   22.1542 C   0  0  0  0  0  0  0  0  0  0  0  0
   12.3423    3.7485   23.5262 C   0  0  0  0  0  0  0  0  0  0  0  0
   13.0462    4.8615   23.9894 C   0  0  0  0  0  0  0  0  0  0  0  0
   13.7059    5.6972   23.0895 C   0  0  0  0  0  0  0  0  0  0  0  0
   13.6725    5.4139   21.7258 C   0  0  0  0  0  0  0  0  0  0  0  0
   12.9651    4.3049   21.2611 C   0  0  0  0  0  0  0  0  0  0  0  0
   12.3347    0.6545   23.3260 C   0  0  0  0  0  0  0  0  0  0  0  0
   12.5694    0.7720   24.5274 O   0  0  0  0  0  0  0  0  0  0  0  0
   13.1133    0.0175   22.3648 N   0  0  0  0  0  0  0  0  0  0  0  0
   14.3333   -0.5236   22.7160 O   0  0  0  0  0  0  0  0  0  0  0  0
    9.9497   -0.5395   22.9245 H   0  0  0  0  0  0  0  0  0  0  0  0
   10.7383   -0.3784   21.3736 H   0  0  0  0  0  0  0  0  0  0  0  0
    9.3069    0.5591   21.7275 H   0  0  0  0  0  0  0  0  0  0  0  0
   10.5008    1.7887   23.4356 H   0  0  0  0  0  0  0  0  0  0  0  0
   10.5933    2.6700   21.1716 H   0  0  0  0  0  0  0  0  0  0  0  0
   12.1215    1.7773   20.9405 H   0  0  0  0  0  0  0  0  0  0  0  0
   11.8645    3.1279   24.1982 H   0  0  0  0  0  0  0  0  0  0  0  0
   13.0783    5.0661   25.0004 H   0  0  0  0  0  0  0  0  0  0  0  0
   14.2183    6.5245   23.4330 H   0  0  0  0  0  0  0  0  0  0  0  0
   14.1710    6.0243   21.0595 H   0  0  0  0  0  0  0  0  0  0  0  0
   12.9456    4.0981   20.2502 H   0  0  0  0  0  0  0  0  0  0  0  0
   12.7944   -0.0471   21.4356 H   0  0  0  0  0  0  0  0  0  0  0  0
   14.4936   -0.3736   23.6608 H   0  0  0  0  0  0  0  0  0  0  0  0
  1 14  1  0  0  0  0
  1 15  1  0  0  0  0
  1 16  1  0  0  0  0
  2 10  1  0  0  0  0
  2  3  1  0  0  0  0
  2  1  1  0  0  0  0
  2 17  1  1  0  0  0
  3  4  1  0  0  0  0
  3 18  1  0  0  0  0
  3 19  1  0  0  0  0
  4  5  2  0  0  0  0
  4  9  1  0  0  0  0
  5  6  1  0  0  0  0
  5 20  1  0  0  0  0
  6  7  2  0  0  0  0
  6 21  1  0  0  0  0
  7  8  1  0  0  0  0
  7 22  1  0  0  0  0
  8  9  2  0  0  0  0
  8 23  1  0  0  0  0
  9 24  1  0  0  0  0
 10 11  2  0  0  0  0
 10 12  1  0  0  0  0
 12 13  1  0  0  0  0
 12 25  1  0  0  0  0
 13 26  1  0  0  0  0
M  END
>  <CHROM.1>
-117.13923958,176.45208146,-14.85711962,12.55172880,2.35499294,22.71982072
1.77895655,0.44457039,3.00213851

>  <Name>
C[C@H](Cc1ccccc1)C(=O)NO

>  <RI>
0

>  <Rbt.Current_Directory>
/home/gse84885/github/im/docking-validation/targets/mpro/expts/jackall/work/Mpro-x0072_0/work/d9/0a0d942dd99ebd5b0411faf6dd7b95

>  <Rbt.Executable>
rbdock ($Id: //depot/dev/client3/rdock/2013.1/src/exe/rbdock.cxx#4 $)

>  <Rbt.Library>
libRbt.so (2013.1, Build901 2013/11/27)

>  <Rbt.Parameter_File>
/rDock_2013.1/data/scripts/dock.prm

>  <Rbt.Receptor>
docking-global.prm

>  <SCORE>
-7.99125

>  <SCORE.INTER>
-7.33884

>  <SCORE.INTER.CONST>
1

>  <SCORE.INTER.POLAR>
0

>  <SCORE.INTER.REPUL>
0.0172121

>  <SCORE.INTER.ROT>
3

>  <SCORE.INTER.VDW>
-15.8249

>  <SCORE.INTER.norm>
-0.564526

>  <SCORE.INTRA>
-0.652415

>  <SCORE.INTRA.DIHEDRAL>
-0.885197

>  <SCORE.INTRA.DIHEDRAL.0>
2.22798

>  <SCORE.INTRA.POLAR>
0

>  <SCORE.INTRA.POLAR.0>
0

>  <SCORE.INTRA.REPUL>
0

>  <SCORE.INTRA.REPUL.0>
0

>  <SCORE.INTRA.VDW>
-0.209816

>  <SCORE.INTRA.VDW.0>
0.104829

>  <SCORE.INTRA.norm>
-0.0501858

>  <SCORE.RESTR>
0

>  <SCORE.RESTR.CAVITY>
0

>  <SCORE.RESTR.norm>
0

>  <SCORE.SYSTEM>
0

>  <SCORE.SYSTEM.CONST>
0

>  <SCORE.SYSTEM.DIHEDRAL>
0

>  <SCORE.SYSTEM.norm>
0

>  <SCORE.heavy>
13

>  <SCORE.norm>
-0.614712

>  <XChemDeepScore>
0.997612

>  <SuCOS_Max_Score>
0.26708404985771877

>  <SuCOS_Max_FeatureMap_Score>
0.058046536763194344

>  <SuCOS_Max_Protrude_Score>
0.47612156295224317

>  <SuCOS_Max_Index>
1

>  <SuCOS_Cum_Score>
1.4083962610460874

>  <SuCOS_Cum_FeatureMap_Score>
0.29430061720001932

>  <SuCOS_Cum_Protrude_Score>
2.5224919048921555

$$$$
