NC(N)=Nc1ccc(S(N)(=O)=O)cc1
 OpenBabel03122003513D

 14 14  0  0  0  0  0  0  0  0999 V2000
   12.3853    5.7915   25.7533 N   0  0  0  0  0  0  0  0  0  0  0  0
   12.0348    5.9569   24.2128 S   0  0  0  0  0  0  0  0  0  0  0  0
   10.6991    6.4856   23.9629 O   0  0  0  0  0  0  0  0  0  0  0  0
   13.0952    6.5605   23.4150 O   0  0  0  0  0  0  0  0  0  0  0  0
   11.9644    4.2820   23.5374 C   0  0  0  0  0  0  0  0  0  0  0  0
   10.7629    3.7369   23.0937 C   0  0  0  0  0  0  0  0  0  0  0  0
   10.7446    2.4160   22.6318 C   0  0  0  0  0  0  0  0  0  0  0  0
   11.9076    1.6309   22.6217 C   0  0  0  0  0  0  0  0  0  0  0  0
   11.7803    0.2777   22.2628 N   0  0  0  0  0  0  0  0  0  0  0  0
   12.7615   -0.5519   22.2148 C   0  0  0  0  0  0  0  0  0  0  0  0
   14.0944   -0.3899   22.4024 N   0  0  0  0  0  0  0  0  0  0  0  0
   12.5204   -1.8412   21.8845 N   0  0  0  0  0  0  0  0  0  0  0  0
   13.0977    2.1998   23.0987 C   0  0  0  0  0  0  0  0  0  0  0  0
   13.1382    3.5295   23.5252 C   0  0  0  0  0  0  0  0  0  0  0  0
  1  2  1  0  0  0  0
  2  3  2  0  0  0  0
  2  4  2  0  0  0  0
  2  5  1  0  0  0  0
  5  6  2  0  0  0  0
  5 14  1  0  0  0  0
  6  7  1  0  0  0  0
  7  8  2  0  0  0  0
  8  9  1  0  0  0  0
  8 13  1  0  0  0  0
  9 10  2  0  0  0  0
 10 11  1  0  0  0  0
 10 12  1  0  0  0  0
 13 14  2  0  0  0  0
M  END
>  <CHROM.1>
112.65228857,-179.87971157,12.19709860,3.23042111,23.29875297,-1.67830098
0.19952623,-2.82262695

>  <Name>
NC(N)=Nc1ccc(S(N)(=O)=O)cc1

>  <RI>
0

>  <Rbt.Current_Directory>
/home/gse84885/github/im/docking-validation/targets/mpro/expts/jackall/work/Mpro-x0072_0/work/9a/df259ad495a9272ae6477a4fe53fcc

>  <Rbt.Executable>
rbdock ($Id: //depot/dev/client3/rdock/2013.1/src/exe/rbdock.cxx#4 $)

>  <Rbt.Library>
libRbt.so (2013.1, Build901 2013/11/27)

>  <Rbt.Parameter_File>
/rDock_2013.1/data/scripts/dock.prm

>  <Rbt.Receptor>
docking-global.prm

>  <SCORE>
-8.79533

>  <SCORE.INTER>
-7.89152

>  <SCORE.INTER.CONST>
1

>  <SCORE.INTER.POLAR>
0

>  <SCORE.INTER.REPUL>
0.00787579

>  <SCORE.INTER.ROT>
2

>  <SCORE.INTER.VDW>
-15.3309

>  <SCORE.INTER.norm>
-0.56368

>  <SCORE.INTRA>
-0.903813

>  <SCORE.INTRA.DIHEDRAL>
-2.72075

>  <SCORE.INTRA.DIHEDRAL.0>
3.93775

>  <SCORE.INTRA.POLAR>
0

>  <SCORE.INTRA.POLAR.0>
0

>  <SCORE.INTRA.REPUL>
0

>  <SCORE.INTRA.REPUL.0>
0

>  <SCORE.INTRA.VDW>
0.456562

>  <SCORE.INTRA.VDW.0>
-0.786313

>  <SCORE.INTRA.norm>
-0.0645581

>  <SCORE.RESTR>
0

>  <SCORE.RESTR.CAVITY>
0

>  <SCORE.RESTR.norm>
0

>  <SCORE.SYSTEM>
0

>  <SCORE.SYSTEM.CONST>
0

>  <SCORE.SYSTEM.DIHEDRAL>
0

>  <SCORE.SYSTEM.norm>
0

>  <SCORE.heavy>
14

>  <SCORE.norm>
-0.628238

>  <XChemDeepScore>
0.986769

>  <SuCOS_Max_Score>
0.38304854984648384

>  <SuCOS_Max_FeatureMap_Score>
0.14752600357940016

>  <SuCOS_Max_Protrude_Score>
0.61857109611356753

>  <SuCOS_Max_Index>
2

>  <SuCOS_Cum_Score>
1.5932201106681285

>  <SuCOS_Cum_FeatureMap_Score>
0.34366131976617365

>  <SuCOS_Cum_Protrude_Score>
2.8427789015700835

$$$$
