@<TRIPOS>MOLECULE
hits.sdf
16 17 1 0 0
SMALL
NO_CHARGES


@<TRIPOS>ATOM
      1 O1          9.7534   -0.9086   20.9965 O.2       1 UNK    0.0000
      2 C1          9.1676   -1.7039   21.6570 C.2       1 UNK    0.0000
      3 C2          9.7531   -2.3355   22.9139 C.3       1 UNK    0.0000
      4 C3         11.2769   -2.3935   22.8498 C.3       1 UNK    0.0000
      5 C4         11.7275   -3.3606   21.7585 C.3       1 UNK    0.0000
      6 C5         13.2284   -3.6138   21.7957 C.3       1 UNK    0.0000
      7 C6         13.7362   -3.9578   23.1850 C.3       1 UNK    0.0000
      8 C7         13.2963   -2.8765   24.1576 C.3       1 UNK    0.0000
      9 C8         11.7815   -2.8372   24.2143 C.3       1 UNK    0.0000
     10 N1          7.8571   -2.1036   21.2553 N.am      1 UNK    0.0000
     11 C9          7.2840   -1.5011   20.0955 C.ar      1 UNK    0.0000
     12 C10         6.0775   -0.8269   20.2514 C.ar      1 UNK    0.0000
     13 C11         5.5506   -0.2475   19.0978 C.ar      1 UNK    0.0000
     14 C12         6.2496   -0.3632   17.9072 C.ar      1 UNK    0.0000
     15 N2          7.4026   -1.0094   17.8363 N.ar      1 UNK    0.0000
     16 C13         7.9432   -1.5750   18.8835 C.ar      1 UNK    0.0000
@<TRIPOS>BOND
     1    1    2 2
     2    2    3 1
     3    2   10 am
     4    4    3 1
     5   10   11 1
     6    4    5 1
     7    4    9 1
     8    5    6 1
     9    9    8 1
    10    6    7 1
    11    7    8 1
    12   11   12 ar
    13   11   16 ar
    14   12   13 ar
    15   16   15 ar
    16   13   14 ar
    17   14   15 ar
@<TRIPOS>SUBSTRUCTURE
     1 UNK     1 RESIDUE           4 A     UNK     0 ROOT
