CC(CCc1cccnc1)C(=O)c1ccccc1
 OpenBabel03122003513D

 18 19  0  0  0  0  0  0  0  0999 V2000
   11.5529    0.5697   22.3500 C   0  0  0  0  0  0  0  0  0  0  0  0
   10.6311    1.6303   21.7397 C   0  0  1  0  0  0  0  0  0  0  0  0
    9.2463    0.9816   21.4918 C   0  0  0  0  0  0  0  0  0  0  0  0
    9.2347   -0.0960   20.4004 C   0  0  0  0  0  0  0  0  0  0  0  0
    7.8434   -0.6181   20.1369 C   0  0  0  0  0  0  0  0  0  0  0  0
    7.1946   -0.3743   18.9222 C   0  0  0  0  0  0  0  0  0  0  0  0
    5.9171   -0.8817   18.7035 C   0  0  0  0  0  0  0  0  0  0  0  0
    5.3196   -1.6131   19.7160 C   0  0  0  0  0  0  0  0  0  0  0  0
    5.9039   -1.8565   20.9088 N   0  0  0  0  0  0  0  0  0  0  0  0
    7.1462   -1.3530   21.0916 C   0  0  0  0  0  0  0  0  0  0  0  0
   10.5295    2.8325   22.6817 C   0  0  0  0  0  0  0  0  0  0  0  0
    9.5464    3.0031   23.4030 O   0  0  0  0  0  0  0  0  0  0  0  0
   11.6299    3.8478   22.7291 C   0  0  0  0  0  0  0  0  0  0  0  0
   12.6665    3.7337   21.7901 C   0  0  0  0  0  0  0  0  0  0  0  0
   13.7000    4.6722   21.7532 C   0  0  0  0  0  0  0  0  0  0  0  0
   13.6971    5.7467   22.6390 C   0  0  0  0  0  0  0  0  0  0  0  0
   12.6724    5.8700   23.5750 C   0  0  0  0  0  0  0  0  0  0  0  0
   11.6498    4.9166   23.6334 C   0  0  0  0  0  0  0  0  0  0  0  0
  2  1  1  1  0  0  0
  2  3  1  0  0  0  0
  2 11  1  0  0  0  0
  3  4  1  0  0  0  0
  4  5  1  0  0  0  0
  5  6  2  0  0  0  0
  5 10  1  0  0  0  0
  6  7  1  0  0  0  0
  7  8  2  0  0  0  0
  8  9  1  0  0  0  0
  9 10  2  0  0  0  0
 11 12  2  0  0  0  0
 11 13  1  0  0  0  0
 13 14  2  0  0  0  0
 13 18  1  0  0  0  0
 14 15  1  0  0  0  0
 15 16  2  0  0  0  0
 16 17  1  0  0  0  0
 17 18  2  0  0  0  0
M  END
>  <CHROM.1>
-67.72917339,-101.94993634,-175.88429382,112.61011437,6.72003669,9.77094811
1.69976908,21.55553748,-0.70742892,-0.46648821,-2.20333091

>  <Name>
CC(CCc1cccnc1)C(=O)c1ccccc1

>  <RI>
0

>  <Rbt.Current_Directory>
/home/gse84885/github/im/docking-validation/targets/mpro/expts/jackall/work/Mpro-x0072_0/work/f7/5ee94e609120b687454cd098917d2d

>  <Rbt.Executable>
rbdock ($Id: //depot/dev/client3/rdock/2013.1/src/exe/rbdock.cxx#4 $)

>  <Rbt.Library>
libRbt.so (2013.1, Build901 2013/11/27)

>  <Rbt.Parameter_File>
/rDock_2013.1/data/scripts/dock.prm

>  <Rbt.Receptor>
docking-global.prm

>  <SCORE>
-9.75603

>  <SCORE.INTER>
-9.73604

>  <SCORE.INTER.CONST>
1

>  <SCORE.INTER.POLAR>
0

>  <SCORE.INTER.REPUL>
0

>  <SCORE.INTER.ROT>
5

>  <SCORE.INTER.VDW>
-20.136

>  <SCORE.INTER.norm>
-0.540891

>  <SCORE.INTRA>
-0.0199898

>  <SCORE.INTRA.DIHEDRAL>
-2.86996

>  <SCORE.INTRA.DIHEDRAL.0>
5.29084

>  <SCORE.INTRA.POLAR>
0

>  <SCORE.INTRA.POLAR.0>
0

>  <SCORE.INTRA.REPUL>
0

>  <SCORE.INTRA.REPUL.0>
0

>  <SCORE.INTRA.VDW>
1.41499

>  <SCORE.INTRA.VDW.0>
-0.759359

>  <SCORE.INTRA.norm>
-0.00111054

>  <SCORE.RESTR>
0

>  <SCORE.RESTR.CAVITY>
0

>  <SCORE.RESTR.norm>
0

>  <SCORE.SYSTEM>
0

>  <SCORE.SYSTEM.CONST>
0

>  <SCORE.SYSTEM.DIHEDRAL>
0

>  <SCORE.SYSTEM.norm>
0

>  <SCORE.heavy>
18

>  <SCORE.norm>
-0.542002

>  <XChemDeepScore>
0.978047

>  <SuCOS_Max_Score>
0.21515022061476233

>  <SuCOS_Max_FeatureMap_Score>
0.0025052479170899942

>  <SuCOS_Max_Protrude_Score>
0.42779519331243465

>  <SuCOS_Max_Index>
5

>  <SuCOS_Cum_Score>
1.1198580200988486

>  <SuCOS_Cum_FeatureMap_Score>
0.098068019128469075

>  <SuCOS_Cum_Protrude_Score>
2.1416480210692281

$$$$
