CC(C)(CNC(=N)NCc1ccccc1)c1ccncc1
 OpenBabel03122003513D

 21 22  0  0  0  0  0  0  0  0999 V2000
    9.5447   -0.6419   25.9053 C   0  0  0  0  0  0  0  0  0  0  0  0
    9.5674   -1.7525   24.8220 C   0  0  0  0  0  0  0  0  0  0  0  0
    8.2552   -1.6083   24.0164 C   0  0  0  0  0  0  0  0  0  0  0  0
   10.7859   -1.4502   23.8845 C   0  0  0  0  0  0  0  0  0  0  0  0
   10.8629   -0.1269   23.1700 N   0  0  0  0  0  0  0  0  0  0  0  0
   11.7503    0.8902   23.2174 C   0  0  0  0  0  0  0  0  0  0  0  0
   12.9996    0.7260   23.6402 N   0  0  0  0  0  0  0  0  0  0  0  0
   11.3798    2.1171   22.7984 N   0  0  0  0  0  0  0  0  0  0  0  0
   12.3561    3.2004   22.5885 C   0  0  0  0  0  0  0  0  0  0  0  0
   12.0792    4.3431   23.5278 C   0  0  0  0  0  0  0  0  0  0  0  0
   10.7917    4.8971   23.6352 C   0  0  0  0  0  0  0  0  0  0  0  0
   10.5418    5.9570   24.5127 C   0  0  0  0  0  0  0  0  0  0  0  0
   11.5732    6.4601   25.3017 C   0  0  0  0  0  0  0  0  0  0  0  0
   12.8496    5.9089   25.2161 C   0  0  0  0  0  0  0  0  0  0  0  0
   13.1041    4.8599   24.3309 C   0  0  0  0  0  0  0  0  0  0  0  0
    9.5810   -3.1876   25.3682 C   0  0  0  0  0  0  0  0  0  0  0  0
    9.0383   -3.5024   26.6236 C   0  0  0  0  0  0  0  0  0  0  0  0
    9.3095   -4.7413   27.1846 C   0  0  0  0  0  0  0  0  0  0  0  0
   10.0677   -5.6793   26.5836 N   0  0  0  0  0  0  0  0  0  0  0  0
   10.4653   -5.4331   25.3223 C   0  0  0  0  0  0  0  0  0  0  0  0
   10.2316   -4.2287   24.6738 C   0  0  0  0  0  0  0  0  0  0  0  0
  1  2  1  0  0  0  0
  2  3  1  0  0  0  0
  2  4  1  0  0  0  0
  2 16  1  0  0  0  0
  4  5  1  0  0  0  0
  5  6  1  0  0  0  0
  6  7  2  0  0  0  0
  6  8  1  0  0  0  0
  8  9  1  0  0  0  0
  9 10  1  0  0  0  0
 10 11  2  0  0  0  0
 10 15  1  0  0  0  0
 11 12  1  0  0  0  0
 12 13  2  0  0  0  0
 13 14  1  0  0  0  0
 14 15  2  0  0  0  0
 16 17  2  0  0  0  0
 16 21  1  0  0  0  0
 17 18  1  0  0  0  0
 18 19  2  0  0  0  0
 19 20  1  0  0  0  0
 20 21  2  0  0  0  0
M  END
>  <CHROM.1>
-58.04067745,26.68090423,118.05869524,-117.18447794,-50.87175240,10.80200638
0.30511135,24.57994059,1.99135928,-0.95713694,-2.96722283

>  <Name>
CC(C)(CNC(=N)NCc1ccccc1)c1ccncc1

>  <RI>
0

>  <Rbt.Current_Directory>
/home/gse84885/github/im/docking-validation/targets/mpro/expts/jackall/work/Mpro-x0072_0/work/fa/86377c27829f194b50bc5c884949b2

>  <Rbt.Executable>
rbdock ($Id: //depot/dev/client3/rdock/2013.1/src/exe/rbdock.cxx#4 $)

>  <Rbt.Library>
libRbt.so (2013.1, Build901 2013/11/27)

>  <Rbt.Parameter_File>
/rDock_2013.1/data/scripts/dock.prm

>  <Rbt.Receptor>
docking-global.prm

>  <SCORE>
-11.1505

>  <SCORE.INTER>
-11.2538

>  <SCORE.INTER.CONST>
1

>  <SCORE.INTER.POLAR>
0

>  <SCORE.INTER.REPUL>
0

>  <SCORE.INTER.ROT>
5

>  <SCORE.INTER.VDW>
-21.6538

>  <SCORE.INTER.norm>
-0.535895

>  <SCORE.INTRA>
0.103271

>  <SCORE.INTRA.DIHEDRAL>
-2.6069

>  <SCORE.INTRA.DIHEDRAL.0>
4.01171

>  <SCORE.INTRA.POLAR>
0

>  <SCORE.INTRA.POLAR.0>
0

>  <SCORE.INTRA.REPUL>
0

>  <SCORE.INTRA.REPUL.0>
0

>  <SCORE.INTRA.VDW>
1.40672

>  <SCORE.INTRA.VDW.0>
-1.07422

>  <SCORE.INTRA.norm>
0.00491768

>  <SCORE.RESTR>
0

>  <SCORE.RESTR.CAVITY>
0

>  <SCORE.RESTR.norm>
0

>  <SCORE.SYSTEM>
0

>  <SCORE.SYSTEM.CONST>
0

>  <SCORE.SYSTEM.DIHEDRAL>
0

>  <SCORE.SYSTEM.norm>
0

>  <SCORE.heavy>
21

>  <SCORE.norm>
-0.530977

>  <XChemDeepScore>
0.968766

>  <SuCOS_Max_Score>
0.33440227422340313

>  <SuCOS_Max_FeatureMap_Score>
0.0096496188693414361

>  <SuCOS_Max_Protrude_Score>
0.6591549295774648

>  <SuCOS_Max_Index>
0

>  <SuCOS_Cum_Score>
1.7633239543393553

>  <SuCOS_Cum_FeatureMap_Score>
0.076096826053780708

>  <SuCOS_Cum_Protrude_Score>
3.4505510826249299

$$$$
