COCC(C)(N)CC(C)COCc1ccccc1
 OpenBabel03122003513D

 18 18  0  0  0  0  0  0  0  0999 V2000
   13.0656    3.9722   23.5691 C   0  0  0  0  0  0  0  0  0  0  0  0
   12.9128    2.5583   23.7213 O   0  0  0  0  0  0  0  0  0  0  0  0
   11.6938    2.0852   23.1521 C   0  0  0  0  0  0  0  0  0  0  0  0
   11.6191    0.5457   23.3170 C   0  0  1  0  0  0  0  0  0  0  0  0
   12.7640   -0.0863   22.5051 C   0  0  0  0  0  0  0  0  0  0  0  0
   11.8659    0.2161   24.7597 N   0  0  0  0  0  0  0  0  0  0  0  0
   10.2651   -0.0866   22.8774 C   0  0  0  0  0  0  0  0  0  0  0  0
   10.0829   -1.6283   22.7398 C   0  0  1  0  0  0  0  0  0  0  0  0
   10.3938   -2.4509   23.9859 C   0  0  0  0  0  0  0  0  0  0  0  0
    8.6276   -1.9566   22.3590 C   0  0  0  0  0  0  0  0  0  0  0  0
    8.2742   -1.2228   21.1988 O   0  0  0  0  0  0  0  0  0  0  0  0
    6.9050   -1.4503   20.8618 C   0  0  0  0  0  0  0  0  0  0  0  0
    6.6135   -0.6539   19.6282 C   0  0  0  0  0  0  0  0  0  0  0  0
    7.5676    0.2418   19.1229 C   0  0  0  0  0  0  0  0  0  0  0  0
    7.2823    1.0072   18.0002 C   0  0  0  0  0  0  0  0  0  0  0  0
    6.0416    0.8834   17.3669 C   0  0  0  0  0  0  0  0  0  0  0  0
    5.0862    0.0025   17.8639 C   0  0  0  0  0  0  0  0  0  0  0  0
    5.3677   -0.7639   18.9958 C   0  0  0  0  0  0  0  0  0  0  0  0
  1  2  1  0  0  0  0
  2  3  1  0  0  0  0
  3  4  1  0  0  0  0
  4  5  1  6  0  0  0
  4  6  1  0  0  0  0
  4  7  1  0  0  0  0
  7  8  1  0  0  0  0
  8  9  1  1  0  0  0
  8 10  1  0  0  0  0
 10 11  1  0  0  0  0
 11 12  1  0  0  0  0
 12 13  1  0  0  0  0
 13 14  2  0  0  0  0
 13 18  1  0  0  0  0
 14 15  1  0  0  0  0
 15 16  2  0  0  0  0
 16 17  1  0  0  0  0
 17 18  2  0  0  0  0
M  END
>  <CHROM.1>
178.30522338,-64.01532830,169.43738032,56.64067523,53.88063232,-176.85172970
-179.59147040,-7.35488032,9.36034152,0.08649752,21.54327333,-0.16512992,-0.69204047
-0.54875173

>  <Name>
COCC(C)(N)CC(C)COCc1ccccc1

>  <RI>
0

>  <Rbt.Current_Directory>
/home/gse84885/github/im/docking-validation/targets/mpro/expts/jackall/work/Mpro-x0072_0/work/1d/dadf88119d78d672f73efd40126c8f

>  <Rbt.Executable>
rbdock ($Id: //depot/dev/client3/rdock/2013.1/src/exe/rbdock.cxx#4 $)

>  <Rbt.Library>
libRbt.so (2013.1, Build901 2013/11/27)

>  <Rbt.Parameter_File>
/rDock_2013.1/data/scripts/dock.prm

>  <Rbt.Receptor>
docking-global.prm

>  <SCORE>
-6.57701

>  <SCORE.INTER>
-6.46944

>  <SCORE.INTER.CONST>
1

>  <SCORE.INTER.POLAR>
0

>  <SCORE.INTER.REPUL>
0.0655923

>  <SCORE.INTER.ROT>
8

>  <SCORE.INTER.VDW>
-20.1974

>  <SCORE.INTER.norm>
-0.359413

>  <SCORE.INTRA>
-0.107573

>  <SCORE.INTRA.DIHEDRAL>
-2.56555

>  <SCORE.INTRA.DIHEDRAL.0>
4.28949

>  <SCORE.INTRA.POLAR>
0

>  <SCORE.INTRA.POLAR.0>
0

>  <SCORE.INTRA.REPUL>
0

>  <SCORE.INTRA.REPUL.0>
0

>  <SCORE.INTRA.VDW>
1.1752

>  <SCORE.INTRA.VDW.0>
-0.996709

>  <SCORE.INTRA.norm>
-0.00597628

>  <SCORE.RESTR>
0

>  <SCORE.RESTR.CAVITY>
0

>  <SCORE.RESTR.norm>
0

>  <SCORE.SYSTEM>
0

>  <SCORE.SYSTEM.CONST>
0

>  <SCORE.SYSTEM.DIHEDRAL>
0

>  <SCORE.SYSTEM.norm>
0

>  <SCORE.heavy>
18

>  <SCORE.norm>
-0.365389

>  <XChemDeepScore>
0.969034

>  <SuCOS_Max_Score>
0.45034440770719431

>  <SuCOS_Max_FeatureMap_Score>
0.26794545258253016

>  <SuCOS_Max_Protrude_Score>
0.63274336283185839

>  <SuCOS_Max_Index>
6

>  <SuCOS_Cum_Score>
2.1162062633088992

>  <SuCOS_Cum_FeatureMap_Score>
0.55875124456618375

>  <SuCOS_Cum_Protrude_Score>
3.673661282051615

$$$$
