COC(=O)c1cccc(CCC(=O)C(=O)O)c1
 OpenBabel03122003513D

 17 17  0  0  0  0  0  0  0  0999 V2000
    7.7542    0.4723   20.2518 C   0  0  0  0  0  0  0  0  0  0  0  0
    9.0402    0.6533   20.8393 O   0  0  0  0  0  0  0  0  0  0  0  0
    9.7414   -0.4942   21.0175 C   0  0  0  0  0  0  0  0  0  0  0  0
    9.3541   -1.6181   20.7327 O   0  0  0  0  0  0  0  0  0  0  0  0
   11.0625   -0.2061   21.6404 C   0  0  0  0  0  0  0  0  0  0  0  0
   12.0012   -1.2426   21.7080 C   0  0  0  0  0  0  0  0  0  0  0  0
   13.2316   -1.0331   22.3323 C   0  0  0  0  0  0  0  0  0  0  0  0
   13.5235    0.2110   22.8961 C   0  0  0  0  0  0  0  0  0  0  0  0
   12.6051    1.2659   22.8268 C   0  0  0  0  0  0  0  0  0  0  0  0
   12.9055    2.5991   23.4801 C   0  0  0  0  0  0  0  0  0  0  0  0
   12.5200    3.7935   22.6135 C   0  0  0  0  0  0  0  0  0  0  0  0
   13.0105    5.1022   23.1908 C   0  0  0  0  0  0  0  0  0  0  0  0
   14.0283    5.6837   22.8163 O   0  0  0  0  0  0  0  0  0  0  0  0
   12.1695    5.7364   24.3072 C   0  0  0  0  0  0  0  0  0  0  0  0
   11.1032    5.1044   24.6019 O   0  0  0  0  0  0  0  0  0  0  0  0
   12.5833    6.8122   24.8379 O   0  0  0  0  0  0  0  0  0  0  0  0
   11.3727    1.0478   22.1896 C   0  0  0  0  0  0  0  0  0  0  0  0
  1  2  1  0  0  0  0
  2  3  1  0  0  0  0
  3  4  2  0  0  0  0
  3  5  1  0  0  0  0
  5  6  2  0  0  0  0
  5 17  1  0  0  0  0
  6  7  1  0  0  0  0
  7  8  2  0  0  0  0
  8  9  1  0  0  0  0
  9 10  1  0  0  0  0
  9 17  2  0  0  0  0
 10 11  1  0  0  0  0
 11 12  1  0  0  0  0
 12 13  2  0  0  0  0
 12 14  1  0  0  0  0
 14 15  2  0  0  0  0
 14 16  1  0  0  0  0
M  END
>  <CHROM.1>
-0.74511354,-170.27816254,137.49456593,-171.59304248,99.11317033,-2.36987976
11.59475017,2.06902249,22.48812859,1.96329372,0.31917251,-2.84114148

>  <Name>
COC(=O)c1cccc(CCC(=O)C(=O)O)c1

>  <RI>
0

>  <Rbt.Current_Directory>
/home/gse84885/github/im/docking-validation/targets/mpro/expts/jackall/work/Mpro-x0072_0/work/d8/381e020584e0d59e0707d0f45185c7

>  <Rbt.Executable>
rbdock ($Id: //depot/dev/client3/rdock/2013.1/src/exe/rbdock.cxx#4 $)

>  <Rbt.Library>
libRbt.so (2013.1, Build901 2013/11/27)

>  <Rbt.Parameter_File>
/rDock_2013.1/data/scripts/dock.prm

>  <Rbt.Receptor>
docking-global.prm

>  <SCORE>
-7.53117

>  <SCORE.INTER>
-7.24852

>  <SCORE.INTER.CONST>
1

>  <SCORE.INTER.POLAR>
0

>  <SCORE.INTER.REPUL>
0

>  <SCORE.INTER.ROT>
6

>  <SCORE.INTER.VDW>
-18.6485

>  <SCORE.INTER.norm>
-0.426383

>  <SCORE.INTRA>
-0.282648

>  <SCORE.INTRA.DIHEDRAL>
0.446568

>  <SCORE.INTRA.DIHEDRAL.0>
3.2321

>  <SCORE.INTRA.POLAR>
0

>  <SCORE.INTRA.POLAR.0>
0

>  <SCORE.INTRA.REPUL>
0

>  <SCORE.INTRA.REPUL.0>
0

>  <SCORE.INTRA.VDW>
-0.505932

>  <SCORE.INTRA.VDW.0>
2.44432

>  <SCORE.INTRA.norm>
-0.0166264

>  <SCORE.RESTR>
0

>  <SCORE.RESTR.CAVITY>
0

>  <SCORE.RESTR.norm>
0

>  <SCORE.SYSTEM>
0

>  <SCORE.SYSTEM.CONST>
0

>  <SCORE.SYSTEM.DIHEDRAL>
0

>  <SCORE.SYSTEM.norm>
0

>  <SCORE.heavy>
17

>  <SCORE.norm>
-0.44301

>  <XChemDeepScore>
0.980233

>  <SuCOS_Max_Score>
0.4557184642353328

>  <SuCOS_Max_FeatureMap_Score>
0.35390012565084383

>  <SuCOS_Max_Protrude_Score>
0.55753680281982176

>  <SuCOS_Max_Index>
1

>  <SuCOS_Cum_Score>
2.1569159891390424

>  <SuCOS_Cum_FeatureMap_Score>
1.1508707126048898

>  <SuCOS_Cum_Protrude_Score>
3.1629612656731956

$$$$
